*Heading
** Job name: Job-1 Model name: OWT_Final_Fixed_Bias_InnerOuter
** Generated by: Abaqus/CAE 2022
*Preprint, echo=NO, model=NO, history=NO, contact=NO
**
** PARTS
**
*Part, name=OWT_NoEmbed
*Node
      1,           0.,         2.75,         -28.
      2,           0.,   2.69000006,         -28.
      3,           0.,   2.69000006,         -30.
      4,           0.,         2.75,         -30.
      5,           0.,  -2.69000006,         -28.
      6,           0.,  -2.69000006,         -30.
      7,           0.,        -2.75,         -30.
      8,           0.,        -2.75,         -28.
      9,           0.,         2.75,           0.
     10,           0.,   2.65804601,          10.
     11,           0.,   2.59804606,          10.
     12,           0.,   2.69000006,           0.
     13,           0.,  -2.65804601,          10.
     14,           0.,  -2.59804606,          10.
     15,           0.,  -2.69000006,           0.
     16,           0.,        -2.75,           0.
     17,           0.,   2.04632187,          70.
     18,           0.,   2.10632181,          70.
     19,           0.,   2.01436782,          80.
     20,           0.,   1.95436776,          80.
** ... 22240 like lines cut
*Element, type=C3D8
  1,    1,    2,   53,   68,   96,  128, 2255, 2167
  2,   68,   53,   54,   67, 2167, 2255, 2256, 2168
  3,   67,   54,   55,   66, 2168, 2256, 2257, 2169
  4,   66,   55,   56,   65, 2169, 2257, 2258, 2170
  5,   65,   56,   57,   64, 2170, 2258, 2259, 2171
  6,   64,   57,   58,   63, 2171, 2259, 2260, 2172
  7,   63,   58,   59,   62, 2172, 2260, 2261, 2173
  8,   62,   59,   60,   61, 2173, 2261, 2262, 2174
  9,   61,   60,    3,    4, 2174, 2262,  107,   95
 10,   96,  128, 2255, 2167,   97,  127, 2263, 2175
 11, 2167, 2255, 2256, 2168, 2175, 2263, 2264, 2176
 12, 2168, 2256, 2257, 2169, 2176, 2264, 2265, 2177
 13, 2169, 2257, 2258, 2170, 2177, 2265, 2266, 2178
 14, 2170, 2258, 2259, 2171, 2178, 2266, 2267, 2179
 15, 2171, 2259, 2260, 2172, 2179, 2267, 2268, 2180
 16, 2172, 2260, 2261, 2173, 2180, 2268, 2269, 2181
 17, 2173, 2261, 2262, 2174, 2181, 2269, 2270, 2182
 18, 2174, 2262,  107,   95, 2182, 2270,  108,   94
 19,   97,  127, 2263, 2175,   98,  126, 2271, 2183
 20, 2175, 2263, 2264, 2176, 2183, 2271, 2272, 2184
** ... 11057 like lines cut
*Nset, nset=Set-Mudline
    3,    4,    6,    7,   85,   86,   87,   88,   89,   90,   91,   92,   93,   94,   95,  107
  108,  109,  110,  111,  112,  113,  114,  115,  116,  117, 1099, 1100, 1101, 1102, 1103, 1104
 1105, 1106, 1107, 1108, 1109, 1110, 1111, 1112, 1113, 1114, 1115, 1116, 1117, 1118, 1119, 1120
 1121, 1122, 1123, 1124, 1125, 1126, 1127, 1128, 1129, 1130, 1131, 1132, 1133, 1134, 1135, 1136
 1137, 1138, 1179, 1180, 1181, 1182, 1183, 1184, 1185, 1186, 1187, 1188, 1189, 1190, 1191, 1192
 1193, 1194, 1195, 1196, 1197, 1198, 1199, 1200, 1201, 1202, 1203, 1204, 1205, 1206, 1207, 1208
 1209, 1210, 1211, 1212, 1213, 1214, 1215, 1216, 1217, 1218
*Elset, elset=Set-Mudline
    9,   18,   27,   36,   45,   54,   63,   72,   81,   90,   99,  108, 2421, 2430, 2439, 2448
 2457, 2466, 2475, 2484, 2493, 2502, 2511, 2520, 2529, 2538, 2547, 2556, 2565, 2574, 2583, 2592
 2601, 2610, 2619, 2628, 2637, 2646, 2655, 2664, 2673, 2682, 2691, 2700, 2709, 2718, 2727, 2736
 2745, 2754, 2763, 2772, 2781
*Nset, nset=Set-All, generate
     1,  22260,      1
*Elset, elset=Set-All, generate
     1,  11077,      1
*Elset, elset=_Surf-1_S5, internal
    9,   18,   27,   36,   45,   54,   63,   72,   81,   90,   99,  108, 2421, 2430, 2439, 2448
 2457, 2466, 2475, 2484, 2493, 2502, 2511, 2520, 2529, 2538, 2547, 2556, 2565, 2574, 2583, 2592
 2601, 2610, 2619, 2628, 2637, 2646, 2655, 2664, 2673, 2682, 2691, 2700, 2709, 2718, 2727, 2736
 2745, 2754, 2763, 2772, 2781
*Surface, type=ELEMENT, name=Surf-1
_Surf-1_S5, S5
*Elset, elset=_Surf-2_S5, internal
 1089, 1098, 1107, 1116, 1125, 1134, 1143, 1152, 1161, 1170, 1179, 1188, 6111, 6120, 6129, 6138
 6147, 6156, 6165, 6174, 6183, 6192, 6201, 6210, 6219, 6228, 6237, 6246, 6255, 6264, 6273, 6282
 6291, 6300, 6309, 6318, 6327, 6336, 6345, 6354, 6363, 6372, 6381, 6390, 6399, 6408, 6417, 6426
 6435, 6444, 6453, 6462, 6471
*Surface, type=ELEMENT, name=Surf-2
_Surf-2_S5, S5
*Elset, elset=_Surf-3_S6, internal, generate
 2413,  2781,     1
*Elset, elset=_Surf-3_S4, internal, generate
 3479,  5405,     1
*Surface, type=ELEMENT, name=Surf-3
_Surf-3_S6, S6
_Surf-3_S4, S4
*Elset, elset=_Surf-4_S3, internal, generate
 2782,  3478,     1
*Surface, type=ELEMENT, name=Surf-4
_Surf-4_S3, S3
*Elset, elset=_Surf-5_S4, internal, generate
  9957,  10653,      1
*Surface, type=ELEMENT, name=Surf-5
_Surf-5_S4, S4
*Elset, elset=_Surf-6_S4, internal, generate
 9260,  9956,     1
*Surface, type=ELEMENT, name=Surf-6
_Surf-6_S4, S4
*Elset, elset=_Surf-7_S4, internal, generate
 8563,  9259,     1
*Surface, type=ELEMENT, name=Surf-7
_Surf-7_S4, S4
*Elset, elset=_Surf-8_S4, internal, generate
 7866,  8562,     1
*Surface, type=ELEMENT, name=Surf-8
_Surf-8_S4, S4
*Elset, elset=_Surf-9_S4, internal, generate
 7169,  7865,     1
*Surface, type=ELEMENT, name=Surf-9
_Surf-9_S4, S4
*Elset, elset=_Surf-10_S4, internal, generate
 6472,  7168,     1
*Surface, type=ELEMENT, name=Surf-10
_Surf-10_S4, S4
*Elset, elset=_Surf-11_S4, internal, generate
 5406,  6102,     1
*Surface, type=ELEMENT, name=Surf-11
_Surf-11_S4, S4
*Elset, elset=_Surf-12_S2, internal, generate
 10654,  10981,      1
*Elset, elset=_Surf-12_S4, internal, generate
 6103,  6471,     1
*Surface, type=ELEMENT, name=Surf-12
_Surf-12_S2, S2
_Surf-12_S4, S4
** Section: SteelSection
*Solid Section, elset=Set-All, material=Steel
,
*End Part
**  
**
** ASSEMBLY
**
*Assembly, name=Assembly
**  
*Instance, name=OWT-1, part=OWT_NoEmbed
*End Instance
**  
*End Assembly
** 
** MATERIALS
** 
*Material, name=Steel
*Density
7850.,
*Elastic
 2.1e+11, 0.3
** 
** BOUNDARY CONDITIONS
** 
** Name: BC-Pinned Type: Displacement/Rotation
*Boundary
OWT-1.Set-Mudline, 1, 1
OWT-1.Set-Mudline, 2, 2
OWT-1.Set-Mudline, 3, 3
** ----------------------------------------------------------------
** 
** STEP: Step-Load
** 
*Step, name=Step-Load, nlgeom=YES
*Static
1., 1., 1e-05, 1.
** 
** LOADS
** 
** Name: Load-RNA-Thrust   Type: Surface traction
*Dsload, op=NEW
OWT-1.Surf-2, TRVEC, 841371., 1., 0., 0.
** Name: Load-RNA-Weight   Type: Surface traction
*Dsload, op=NEW
OWT-1.Surf-2, TRVEC, -4.74356e+06, 0., 0., 1.
** Name: Load-SelfWeight   Type: Gravity
*Dload
, GRAV, 9.81, 0., 0., -1.
** Name: Load-Wave   Type: Surface traction
*Dsload, op=NEW
OWT-1.Surf-3, TRVEC, 6127.51, 1., 0., 0.
** Name: Load-Wind-Seg-4   Type: Surface traction
*Dsload, op=NEW
OWT-1.Surf-4, TRVEC, 21.1373, 1., 0., 0.
** Name: Load-Wind-Seg-5   Type: Surface traction
*Dsload, op=NEW
OWT-1.Surf-5, TRVEC, 24.963, 1., 0., 0.
** Name: Load-Wind-Seg-6   Type: Surface traction
*Dsload, op=NEW
OWT-1.Surf-6, TRVEC, 27.5143, 1., 0., 0.
** Name: Load-Wind-Seg-7   Type: Surface traction
*Dsload, op=NEW
OWT-1.Surf-7, TRVEC, 29.4811, 1., 0., 0.
** Name: Load-Wind-Seg-8   Type: Surface traction
*Dsload, op=NEW
OWT-1.Surf-8, TRVEC, 31.103, 1., 0., 0.
** Name: Load-Wind-Seg-9   Type: Surface traction
*Dsload, op=NEW
OWT-1.Surf-9, TRVEC, 32.4942, 1., 0., 0.
** Name: Load-Wind-Seg-10   Type: Surface traction
*Dsload, op=NEW
OWT-1.Surf-10, TRVEC, 33.7189, 1., 0., 0.
** Name: Load-Wind-Seg-11   Type: Surface traction
*Dsload, op=NEW
OWT-1.Surf-11, TRVEC, 34.817, 1., 0., 0.
** Name: Load-Wind-Seg-12   Type: Surface traction
*Dsload, op=NEW
OWT-1.Surf-12, TRVEC, 35.525, 1., 0., 0.
** 
** OUTPUT REQUESTS
** 
*Restart, write, frequency=0
** 
** FIELD OUTPUT: F-Output-1
** 
*Output, field, variable=PRESELECT
** 
** HISTORY OUTPUT: H-Output-1
** 
*Output, history, variable=PRESELECT
*End Step
