*Heading
** Job name: Job-2 Model name: OWT_Rated_Load_Case
** Generated by: Abaqus/CAE 2022
*Preprint, echo=NO, model=NO, history=NO, contact=NO
**
** PARTS
**
*Part, name=OWT_NoEmbed
*Node
      1,           0.,   1.95436776,          80.
      2,           0.,   2.01436782,          80.
      3,           0.,   1.95000005,          87.
      4,           0.,   1.88999999,          87.
      5,           0.,  -2.01436782,          80.
      6,           0.,  -1.95436776,          80.
      7,           0.,  -1.88999999,          87.
      8,           0.,  -1.95000005,          87.
      9,           0.,   2.04632187,          70.
     10,           0.,   2.13827586,          60.
     11,           0.,    2.1982758,          60.
     12,           0.,   2.10632181,          70.
     13,           0.,  -2.10632181,          70.
     14,           0.,   -2.1982758,          60.
     15,           0.,  -2.13827586,          60.
     16,           0.,  -2.04632187,          70.
     17,           0.,   2.65804601,          10.
     18,           0.,   2.59804606,          10.
     19,           0.,   2.69000006,           0.
     20,           0.,         2.75,           0.
** ... 14080 like lines cut
*Element, type=C3D8
  1,    1,    2,   45,   70,  113,   84, 1557, 1751
  2,   70,   45,   46,   69, 1751, 1557, 1558, 1750
  3,   69,   46,   47,   68, 1750, 1558, 1559, 1749
  4,   68,   47,   48,   67, 1749, 1559, 1560, 1748
  5,   67,   48,   49,   66, 1748, 1560, 1561, 1747
  6,   66,   49,   50,   65, 1747, 1561, 1562, 1746
  7,   65,   50,   51,   64, 1746, 1562, 1563, 1745
  8,   64,   51,   52,   63, 1745, 1563, 1564, 1744
  9,   63,   52,   53,   62, 1744, 1564, 1565, 1743
 10,   62,   53,   54,   61, 1743, 1565, 1566, 1742
 11,   61,   54,   55,   60, 1742, 1566, 1567, 1741
 12,   60,   55,   56,   59, 1741, 1567, 1568, 1740
 13,   59,   56,   57,   58, 1740, 1568, 1569, 1739
 14,   58,   57,    3,    4, 1739, 1569,   85,   99
 15,  113,   84, 1557, 1751,  114,   83, 1570, 1764
 16, 1751, 1557, 1558, 1750, 1764, 1570, 1571, 1763
 17, 1750, 1558, 1559, 1749, 1763, 1571, 1572, 1762
 18, 1749, 1559, 1560, 1748, 1762, 1572, 1573, 1761
 19, 1748, 1560, 1561, 1747, 1761, 1573, 1574, 1760
 20, 1747, 1561, 1562, 1746, 1760, 1574, 1575, 1759
** ... 7000 like lines cut
*Nset, nset=Set-Mudline
   29,   30,   31,   32,  835,  836,  837,  838,  839,  840,  841,  842,  843,  844,  845,  846
  847,  848,  849,  850,  851,  852,  853,  854,  855,  856,  857,  858,  859,  860,  861,  862
  981,  982,  983,  984,  985,  986,  987,  988,  989,  990,  991,  992,  993,  994,  995,  996
  997,  998,  999, 1000, 1001, 1002, 1003, 1004, 1005, 1006, 1007, 1008
*Elset, elset=Set-Mudline, generate
 2280,  4020,    60
*Nset, nset=Set-All, generate
     1,  14100,      1
*Elset, elset=Set-All, generate
    1,  7020,     1
*Elset, elset=_Surf-1_S5, internal, generate
 2280,  4020,    60
*Surface, type=ELEMENT, name=Surf-1
_Surf-1_S5, S5
*Elset, elset=_Surf-2_S5, internal, generate
  14,  420,   14
*Surface, type=ELEMENT, name=Surf-2
_Surf-2_S5, S5
*Elset, elset=_Surf-3_S6, internal, generate
 3121,  4020,     1
*Surface, type=ELEMENT, name=Surf-3
_Surf-3_S6, S6
*Elset, elset=_Surf-4_S6, internal, generate
 1321,  1620,     1
*Surface, type=ELEMENT, name=Surf-4
_Surf-4_S6, S6
*Elset, elset=_Surf-5_S6, internal, generate
 1921,  2220,     1
*Surface, type=ELEMENT, name=Surf-5
_Surf-5_S6, S6
*Elset, elset=_Surf-6_S6, internal, generate
 4321,  4620,     1
*Surface, type=ELEMENT, name=Surf-6
_Surf-6_S6, S6
*Elset, elset=_Surf-7_S6, internal, generate
 4921,  5220,     1
*Surface, type=ELEMENT, name=Surf-7
_Surf-7_S6, S6
*Elset, elset=_Surf-8_S6, internal, generate
 5521,  5820,     1
*Surface, type=ELEMENT, name=Surf-8
_Surf-8_S6, S6
*Elset, elset=_Surf-9_S6, internal, generate
 6121,  6420,     1
*Surface, type=ELEMENT, name=Surf-9
_Surf-9_S6, S6
*Elset, elset=_Surf-10_S5, internal, generate
  721,  1020,     1
*Surface, type=ELEMENT, name=Surf-10
_Surf-10_S5, S5
*Elset, elset=_Surf-11_S4, internal, generate
 6421,  6720,     1
*Surface, type=ELEMENT, name=Surf-11
_Surf-11_S4, S4
*Elset, elset=_Surf-12_S4, internal, generate
 211,  420,    1
*Surface, type=ELEMENT, name=Surf-12
_Surf-12_S4, S4
** Section: SteelSection
*Solid Section, elset=Set-All, material=Steel
,
*End Part
**  
**
** ASSEMBLY
**
*Assembly, name=Assembly
**  
*Instance, name=OWT-1, part=OWT_NoEmbed
*End Instance
**  
*End Assembly
** 
** MATERIALS
** 
*Material, name=Steel
*Density
7850.,
*Elastic
 2.1e+11, 0.3
** 
** BOUNDARY CONDITIONS
** 
** Name: BC-Pinned Type: Displacement/Rotation
*Boundary
OWT-1.Set-Mudline, 1, 1
OWT-1.Set-Mudline, 2, 2
OWT-1.Set-Mudline, 3, 3
** ----------------------------------------------------------------
** 
** STEP: Step-Load
** 
*Step, name=Step-Load, nlgeom=YES
*Static
1., 1., 1e-05, 1.
** 
** LOADS
** 
** Name: Load-RNA-Thrust   Type: Surface traction
*Dsload, op=NEW
OWT-1.Surf-2, TRVEC, 841371., 1., 0., 0.
** Name: Load-RNA-Weight   Type: Surface traction
*Dsload, op=NEW
OWT-1.Surf-2, TRVEC, -4.74356e+06, 0., 0., 1.
** Name: Load-SelfWeight   Type: Gravity
*Dload
, GRAV, 9.81, 0., 0., -1.
** Name: Load-Wave   Type: Surface traction
*Dsload, op=NEW
OWT-1.Surf-3, TRVEC, 6127.51, 1., 0., 0.
** Name: Load-Wind-Seg-4   Type: Surface traction
*Dsload, op=NEW
OWT-1.Surf-4, TRVEC, 21.1373, 1., 0., 0.
** Name: Load-Wind-Seg-5   Type: Surface traction
*Dsload, op=NEW
OWT-1.Surf-5, TRVEC, 24.963, 1., 0., 0.
** Name: Load-Wind-Seg-6   Type: Surface traction
*Dsload, op=NEW
OWT-1.Surf-6, TRVEC, 27.5143, 1., 0., 0.
** Name: Load-Wind-Seg-7   Type: Surface traction
*Dsload, op=NEW
OWT-1.Surf-7, TRVEC, 29.4811, 1., 0., 0.
** Name: Load-Wind-Seg-8   Type: Surface traction
*Dsload, op=NEW
OWT-1.Surf-8, TRVEC, 31.103, 1., 0., 0.
** Name: Load-Wind-Seg-9   Type: Surface traction
*Dsload, op=NEW
OWT-1.Surf-9, TRVEC, 32.4942, 1., 0., 0.
** Name: Load-Wind-Seg-10   Type: Surface traction
*Dsload, op=NEW
OWT-1.Surf-10, TRVEC, 33.7189, 1., 0., 0.
** Name: Load-Wind-Seg-11   Type: Surface traction
*Dsload, op=NEW
OWT-1.Surf-11, TRVEC, 34.817, 1., 0., 0.
** Name: Load-Wind-Seg-12   Type: Surface traction
*Dsload, op=NEW
OWT-1.Surf-12, TRVEC, 35.525, 1., 0., 0.
** 
** OUTPUT REQUESTS
** 
*Restart, write, frequency=0
** 
** FIELD OUTPUT: F-Output-1
** 
*Output, field, variable=PRESELECT
** 
** HISTORY OUTPUT: H-Output-1
** 
*Output, history, variable=PRESELECT
*End Step
