*Heading
** Job name: singleNotch Model name: singleNotch
** Generated by: Abaqus/CAE 2020
*Preprint, echo=NO, model=NO, history=NO, contact=NO
**
** PARTS
**
*Part, name=Part-1
*Node
      1,  0.349999994,           0.
      2,  0.349999994,  0.349999994
      3,           0.,  0.349999994
      4,           0.,           0.
      5,  0.400000006,           0.
      6,  0.400000006,  0.349999994
      7,  0.349999994,  0.400000006
      8,           0.,  0.400000006
      9,           1.,           0.
     10,           1.,  0.349999994
     11,  0.349999994,  0.499999702
     12,           0.,  0.499998987
     13,  0.400000006,  0.499999791
     14,  0.400000006,  0.400000006
     15,           1.,  0.400000006
     16,          0.5,          0.5
     17,           1.,  0.500001013
     18,  0.400000006,           1.
     19,  0.400000006,  0.649999976
     20,           1.,  0.649999976
** ... 143870 like lines cut
*Element, type=CPE4
  1,    1,   33, 3020,  140
  2,   33,   34, 3021, 3020
  3,   34,   35, 3022, 3021
  4,   35,   36, 3023, 3022
  5,   36,   37, 3024, 3023
  6,   37,   38, 3025, 3024
  7,   38,   39, 3026, 3025
  8,   39,   40, 3027, 3026
  9,   40,   41, 3028, 3027
 10,   41,   42, 3029, 3028
 11,   42,   43, 3030, 3029
 12,   43,   44, 3031, 3030
 13,   44,   45, 3032, 3031
 14,   45,   46, 3033, 3032
 15,   46,   47, 3034, 3033
 16,   47,   48, 3035, 3034
 17,   48,   49, 3036, 3035
 18,   49,   50, 3037, 3036
 19,   50,   51, 3038, 3037
 20,   51,   52, 3039, 3038
** ... 143485 like lines cut
*Nset, nset=Set-8, generate
      1,  143890,       1
*Elset, elset=Set-8, generate
      1,  143505,       1
*Elset, elset=_Surf-1_S4, internal, generate
 62577,  63893,     28
*Elset, elset=_Surf-1_S2, internal
 123948, 123976, 124004, 124032, 124060, 124088, 124116, 124144, 124172, 124200, 124228, 124256, 124284, 124312, 124340, 124368
 124396, 124424, 124452, 124480, 124508, 124536, 124564, 124592, 124620, 124648, 124676, 124704, 124956, 124984, 125012, 125040
*Surface, type=ELEMENT, name=Surf-1
_Surf-1_S4, S4
_Surf-1_S2, S2
*Elset, elset=_Surf-2_S4, internal, generate
   1,  869,   28
*Elset, elset=_Surf-2_S2, internal, generate
 1036,  2352,    28
*Surface, type=ELEMENT, name=Surf-2
_Surf-2_S4, S4
_Surf-2_S2, S2
** Section: Section-1
*Solid Section, elset=Set-8, material=Material-1
,
*End Part
**  
**
** ASSEMBLY
**
*Assembly, name=Assembly
**  
*Instance, name=Part-1-1, part=Part-1
*End Instance
**  
*Nset, nset=Set-1, instance=Part-1-1
   1,   4,   5,   9, 114, 115, 116, 117, 118, 119, 120, 121, 122, 123, 124, 125
 126, 127, 128, 129, 130, 131, 132, 133, 134, 135, 136, 137, 138, 139, 140, 171
 172, 173, 207, 208, 209, 210, 211, 212, 213, 214, 215, 216, 217, 218, 219, 220
 221, 222, 223, 224, 225, 226, 227, 228, 229, 230, 231, 232, 233, 234, 235, 236
 237, 238, 239, 240, 241, 242, 243, 244, 245, 246, 247, 248, 249, 250, 251, 252
 253,
*Elset, elset=Set-1, instance=Part-1-1
    1,   29,   57,   85,  113,  141,  169,  197,  225,  253,  281,  309,  337,  365,  393,  421
  449,  477,  505,  533,  561,  589,  617,  645,  673,  701,  729,  757,  785,  813,  841,  869
 1036, 1064, 1092, 1120, 1148, 1176, 1204, 1232, 1260, 1288, 1316, 1344, 1372, 1400, 1428, 1456
 1484, 1512, 1540, 1568, 1596, 1624, 1652, 1680, 1708, 1736, 1764, 1792, 1820, 1848, 1876, 1904
 1932, 1960, 1988, 2016, 2044, 2072, 2100, 2128, 2156, 2184, 2212, 2240, 2268, 2296, 2324, 2352
*Nset, nset=Set-2, instance=Part-1-1
   18,   21,   26,   27, 1865, 1866, 1867, 1868, 1869, 1870, 1871, 1872, 1873, 1874, 1875, 1876
 1877, 1878, 1879, 1880, 1881, 1882, 1883, 1884, 1885, 1886, 1887, 1888, 1889, 1890, 1891, 1892
 1893, 1894, 1895, 1896, 1897, 1898, 1899, 1900, 1901, 1902, 1903, 1904, 1905, 1906, 1907, 1908
 1909, 1910, 1911, 2835, 2836, 2837, 2838, 2839, 2840, 2841, 2842, 2843, 2844, 2845, 2846, 2847
 2848, 2849, 2850, 2851, 2852, 2853, 2854, 2855, 2856, 2857, 2858, 2859, 2860, 2861, 2984, 2985
 2986,
*Elset, elset=Set-2, instance=Part-1-1
  62577,  62605,  62633,  62661,  62689,  62717,  62745,  62773,  62801,  62829,  62857,  62885,  62913,  62941,  62969,  62997
  63025,  63053,  63081,  63109,  63137,  63165,  63193,  63221,  63249,  63277,  63305,  63333,  63361,  63389,  63417,  63445
  63473,  63501,  63529,  63557,  63585,  63613,  63641,  63669,  63697,  63725,  63753,  63781,  63809,  63837,  63865,  63893
 123948, 123976, 124004, 124032, 124060, 124088, 124116, 124144, 124172, 124200, 124228, 124256, 124284, 124312, 124340, 124368
 124396, 124424, 124452, 124480, 124508, 124536, 124564, 124592, 124620, 124648, 124676, 124704, 124956, 124984, 125012, 125040
*Nset, nset=Set-3, instance=Part-1-1
   1,   4,   5,   9, 114, 115, 116, 117, 118, 119, 120, 121, 122, 123, 124, 125
 126, 127, 128, 129, 130, 131, 132, 133, 134, 135, 136, 137, 138, 139, 140, 171
 172, 173, 207, 208, 209, 210, 211, 212, 213, 214, 215, 216, 217, 218, 219, 220
 221, 222, 223, 224, 225, 226, 227, 228, 229, 230, 231, 232, 233, 234, 235, 236
 237, 238, 239, 240, 241, 242, 243, 244, 245, 246, 247, 248, 249, 250, 251, 252
 253,
*Elset, elset=Set-3, instance=Part-1-1
    1,   29,   57,   85,  113,  141,  169,  197,  225,  253,  281,  309,  337,  365,  393,  421
  449,  477,  505,  533,  561,  589,  617,  645,  673,  701,  729,  757,  785,  813,  841,  869
 1036, 1064, 1092, 1120, 1148, 1176, 1204, 1232, 1260, 1288, 1316, 1344, 1372, 1400, 1428, 1456
 1484, 1512, 1540, 1568, 1596, 1624, 1652, 1680, 1708, 1736, 1764, 1792, 1820, 1848, 1876, 1904
 1932, 1960, 1988, 2016, 2044, 2072, 2100, 2128, 2156, 2184, 2212, 2240, 2268, 2296, 2324, 2352
*Nset, nset=TIP, instance=Part-1-1
 16,
*End Assembly
** 
** MATERIALS
** 
*Material, name=Material-1
*Elastic
2000., 0.3
** ----------------------------------------------------------------
** 
** STEP: Step-1
** 
*Step, name=Step-1, nlgeom=NO
*Static
1., 1., 1e-05, 1.
** 
** BOUNDARY CONDITIONS
** 
** Name: BC-1 Type: Displacement/Rotation
*Boundary
Set-2, 1, 1
Set-2, 2, 2, 0.0001
** Name: BC-2 Type: Displacement/Rotation
*Boundary
Set-3, 1, 1
Set-3, 2, 2
** 
** OUTPUT REQUESTS
** 
*Restart, write, frequency=0
** 
** FIELD OUTPUT: F-Output-1
** 
*Output, field, variable=PRESELECT
** 
** HISTORY OUTPUT: H-Output-1
** 
*Output, history, variable=PRESELECT
*End Step
