*Heading
** Job name: Job-2 Model name: OWT_monopile_gmsh
** Generated by: Abaqus/CAE 2022
*Preprint, echo=NO, model=NO, history=NO, contact=NO
**
** PARTS
**
*Part, name=PART-1
*Node
      1,   2.69000006,           0.,         -30.
      2,   2.69000006,           0.,           0.
      3,   1.88999999,           0.,          87.
      4,   1.95000005,           0.,          87.
      5,         2.75,           0.,           0.
      6,         2.75,           0.,         -30.
      7,   2.69000006,           0.,        -29.5
      8,   2.69000006,           0.,         -29.
      9,   2.69000006,           0.,        -28.5
     10,   2.69000006,           0.,         -28.
     11,   2.69000006,           0.,        -27.5
     12,   2.69000006,           0.,         -27.
     13,   2.69000006,           0.,        -26.5
     14,   2.69000006,           0.,         -26.
     15,   2.69000006,           0.,        -25.5
     16,   2.69000006,           0.,         -25.
     17,   2.69000006,           0.,        -24.5
     18,   2.69000006,           0.,         -24.
     19,   2.69000006,           0.,        -23.5
     20,   2.69000006,           0.,         -23.
** ... 29535 like lines cut
*Element, type=C3D4
 53302,  9419, 11612,  9144, 13513
 53303, 26334, 26496, 25968, 27955
 53304, 18044, 18045,  4867, 18046
 53305, 17954,  2731, 17952, 17953
 53306, 16374,  7516,  7514,  7515
 53307,  7607,  6575,  9911, 14285
 53308,  4574, 26078,  5914, 27576
 53309, 11602, 17178, 17584, 15110
 53310, 12280, 11109, 11108,  6948
 53311, 11125,  9418, 11124, 13223
 53312, 14917,  7776,  7778,  7777
 53313, 17001,  6621,  6623, 10419
 53314, 19844, 26770, 25977, 27799
 53315,  4955,  1987,  4956, 21162
 53316,  6583, 10450, 10451, 13531
 53317, 11206, 16132, 11204,  9811
 53318, 24516, 26792, 26052, 28393
 53319, 25836, 27192, 26652, 29210
 53320,  5425, 18949,  6225,  5138
 53321,  5227, 21136,  2717,  3425
** ... 100078 like lines cut
*Elset, elset=Set-All, generate
  53302,  153399,       1
*Nset, nset=Set-Mudline
     1,     6,   473,   474,   475,   476,   477,   478,   479,   480,   481,   482,   483,   484,   485,   486
   487,   488,   489,   490,   491,   492,   493,   494,   495,   496,   497,   498,   499,   500,   501,   502
   503,   504,   505,   506,   507,   508,   509,   510,   511,   512,   513,   514,   515,   516,   517,   518
   519,   520,   521,   522,   523,   524,   525,   526,   527,   528,   529,   530,   531,   532,   533,   534
   535,   536,   537,   538,   539,   540,   541,   542,   543,   544,   545,   546,   547,   548,   549,   550
   551,   552,   553,   554,   555,   556,   557,   558,   559,   560,   561,   562,   563,   564,   565,   566
   567,   568,   569,   570,   571,   572,   573,   574,   575,   576,   577,   578,   579,   580,   581,   582
   583,   584,   585,   586,   587,   588,   589,   590,   591,   592,   593,   594,   595,   596,   597,   598
   599,   600,   601,   602,   603,   604,   605,   606,   607,   608,   609,   610,   611,   612,   613,   614
   615,   616,   617,   618,   619,   620,   621,   622,   623,   624,   625,   626,   627,   628,   629,   630
   631,   632,   633,   634,   635,   636,   637,   638,   639,   640,   641,   642,   643,   644,   645,   646
   647,   648,   649,   650,   651,   652,   653,   654,   655,   656,   657,   658,   659,   660,   661,   662
   663,   664,   665,   666,   667,   668,   669,   670,   671,   672,   673,   674,   675,   676,   677,   678
   679,   680,   681,   682,   683,   684,   685,   686,   687,   688,   689,   690,   691,   692,   693,   694
   695,   696,   697,   698,   699,   700,   701,   702,   703,   704,   705,   706,   707,   708,   709,   710
   711,   712,   713,   714,   715,   716,   717,   718,   719,   720,   721,   722,   723,   724,   725,   726
   727,   728,   729,   730,   731,   732,   733,   734,   735,   736,   737,   738,   739,   740,   741,   742
   743,   744,   745,   746,   747,   748,   749,   750,   751,   752,   753,   754,   755,   756,   757,   758
   759,   760,   761,   762,   763,   764,   765,   766,   767,   768,   769,   770,   771,   772,   773,   774
   775,   776,   777,   778,   779,   780,   781,   782,   783,   784,   785,   786,   787,   788,   789,   790
** ... 325 like lines cut
*Elset, elset=_Surf-1_S1, internal
  53701,  54327,  54544,  55127,  55156,  55463,  55519,  55554,  55612,  55717,  55897,  55908,  56017,  56042,  56099,  56101
  56108,  56131,  56137,  56179,  56325,  56483,  56508,  56532,  56586,  56608,  56631,  56680,  56881,  57186,  57235,  57259
  57292,  57557,  57587,  57591,  57635,  57653,  57657,  57687,  57743,  57800,  57802,  57921,  57922,  57931,  57982,  57989
  58012,  58087,  58147,  58167,  58214,  58403,  58428,  58459,  58483,  58485,  58489,  58606,  58669,  58673,  58694,  58717
  58775,  58784,  58791,  58855,  58870,  58874,  58875,  58878,  58906,  58931,  58971,  58981,  59000,  59001,  59009,  59013
  59019,  59028,  59106,  59123,  59126,  59129,  59141,  59162,  59178,  59207,  59217,  59221,  59325,  59355,  59360,  59382
  59397,  59414,  59441,  59491,  59509,  59523,  59533,  59551,  59565,  59594,  59600,  59621,  59692,  59700,  59752,  59755
  59760,  59781,  59865,  59909,  60016,  60025,  60029,  60108,  60125,  60152,  60225,  60236,  60246,  60257,  60318,  60326
  60358,  60373,  60387,  60395,  60434,  60438,  60510,  60566,  60569,  60601,  60630,  60653,  60733,  60742,  60749,  60805
  60815,  60821,  60931,  60998,  61053,  61078,  61117,  61174,  61179,  61236,  61275,  61330,  61350,  61425,  61433,  61531
  61537,  61576,  61582,  61583,  61586,  61603,  61634,  61653,  61668,  61799,  61802,  61810,  61855,  61864,  61891,  61907
  61908,  61925,  61984,  61999,  62052,  62115,  62147,  62162,  62192,  62193,  62195,  62220,  62238,  62251,  62253,  62263
  62276,  62288,  62295,  62351,  62352,  62355,  62361,  62367,  62416,  62480,  62516,  62529,  62558,  62593,  62608,  62609
  62613,  62616,  62620,  62634,  62644,  62683,  62706,  62790,  62792,  62794,  62795,  62810,  62816,  62826,  62829,  62838
  62923,  62935,  62950,  62951,  62960,  62969,  62981,  62994,  63008,  63024,  63034,  63040,  63050,  63089,  63100,  63120
  63139,  63169,  63214,  63223,  63233,  63239,  63245,  63257,  63293,  63294,  63335,  63342,  63393,  63425,  63458,  63502
  63555,  63578,  63616,  63619,  63640,  63649,  63673,  63681,  63725,  63745,  63752,  63756,  63772,  63831,  63862,  63887
  63897,  63900,  64015,  64023,  64099,  64114,  64126,  64141,  64153,  64183,  64188,  64193,  64243,  64269,  64272,  64306
  64358,  64370,  64387,  64389,  64390,  64405,  64437,  64454,  64475,  64486,  64496,  64508,  64517,  64537,  64538,  64540
  64559,  64584,  64593,  64603,  64608,  64662,  64679,  64683,  64719,  64728,  64736,  64740,  64755,  64770,  64798,  64819
** ... 347 like lines cut
*Elset, elset=_Surf-1_S2, internal
  75687,  75782,  77454,  77711,  77970,  77978,  78070,  78960,  79063,  79119,  79378,  79598,  79599,  79722,  79746,  79788
  79912,  80247,  80547,  80581,  80712,  80820,  80913,  81027,  81094,  81628,  81655,  81986,  82076,  82138,  82541,  83103
  83210,  83236,  83252,  83353,  83360,  83410,  83464,  83481,  83617,  83628,  83676,  83770,  83807,  83940,  84041,  84160
  84668,  84681,  84720,  84768,  84818,  84823,  84855,  85053,  85067,  85133,  85406,  85619,  85813,  85914,  85980,  86057
  86077,  86360,  86417,  86490,  86615,  86762,  86780,  86902,  87032,  87276,  87517,  87563,  87673,  87704,  87736,  87894
  88008,  88176,  88379,  88387,  88410,  88485,  88623,  88624,  88636,  88647,  88949,  89080,  89204,  89473,  89550,  89590
  89644,  89661,  89922,  89961,  90005,  90019,  90249,  90264,  90319,  90320,  90333,  90349,  90448,  90466,  90471,  90887
  90941,  91071,  91226,  91337,  91427,  91428,  91878,  91997,  92074,  92144,  92230,  92354,  92398,  92642,  92722,  92724
  93105,  93192,  93396,  93628,  94000,  94169,  94353,  94513,  94871,  95050,  95116,  95161,  95498,  95532,  95780,  95969
  96031,  96479,  96878,  96945,  97463,  98167,  98866,  99105,  99593, 100707, 101864, 102045, 102058, 102117, 102137, 102167
 102185, 102206, 102238, 102241, 102287, 102397, 102468, 102519, 102541, 102563, 102568, 102583, 102598, 102743, 102787, 102788
 102792, 102804, 102889, 102892, 102926, 102967, 102974, 103054, 103086, 103130, 103196, 103211, 103217, 103294, 103308, 103324
 103372, 103381, 103387, 103411, 103447, 103467, 103527, 103560, 103615, 103637, 103652, 103690, 103718, 103744, 103795, 103799
 103820, 103829, 103832, 103841, 103855, 103859, 103890, 103902, 103917, 103991, 104043, 104053, 104068, 104071, 104102, 104105
 104144, 104147, 104159, 104160, 104191, 104200, 104215, 104249, 104319, 104330, 104394, 104435, 104465, 104477, 104496, 104516
 104519, 104536, 104552, 104620, 104634, 104653, 104673, 104678, 104680, 104720, 104734, 104769, 104797, 104816, 104838, 104841
 104845, 104856, 104889, 104898, 104923, 104931, 104956, 104966, 104968, 104969, 104978, 104991, 105007, 105017, 105032, 105048
 105060, 105087, 105088, 105098, 105102, 105116, 105120, 105156, 105174, 105231, 105245, 105247, 105250, 105258, 105317, 105321
 105323, 105334, 105346, 105414, 105435, 105460, 105472, 105483, 105550, 105596, 105607, 105609, 105671, 105708, 105734, 105750
 105768, 105770, 105778, 105804, 105818, 105868, 105908, 105931, 105977, 105992, 106032, 106045, 106049, 106076, 106176, 106196
** ... 7 like lines cut
*Elset, elset=_Surf-1_S3, internal
  76141,  76518,  76925,  77066,  77084,  77260,  77307,  77413,  77455,  77760,  77845,  77864,  77873,  77927,  78374,  78680
  78729,  78862,  78974,  79044,  79051,  79862,  80077,  80413,  80514,  80967,  81004,  81005,  81059,  81147,  81155,  81272
  81332,  81439,  81481,  81556,  81773,  82211,  82638,  82929,  83332,  83411,  83431,  83800,  84002,  84104,  84295,  84571
  84661,  84685,  84711,  84820,  84821,  84868,  85031,  85045,  85168,  85679,  85692,  85727,  86024,  86061,  86068,  86107
  86110,  86178,  86191,  86200,  86247,  86370,  86372,  86443,  86446,  86618,  86723,  86806,  86860,  86981,  87005,  87037
  87087,  87164,  87327,  87359,  87393,  87420,  87515,  87716,  87828,  87906,  88024,  88184,  88215,  88273,  88292,  88301
  88317,  88334,  88486,  88512,  88579,  88861,  88868,  88891,  88991,  89077,  89174,  89414,  89427,  89580,  89616,  89859
  89902,  89966,  90006,  90021,  90024,  90036,  90128,  90191,  90260,  90270,  90281,  90403,  90498,  90510,  90543,  90610
  90678,  90723,  90861,  90949,  90974,  90997,  90999,  91157,  91164,  91252,  91325,  91338,  91364,  91401,  91536,  91571
  91674,  91785,  92001,  92073,  92127,  92468,  92518,  92654,  92740,  92992,  93445,  93634,  93847,  93961,  94101,  94114
  94152,  94301,  94584,  94663,  94859,  95351,  95353,  95427,  95483,  95921,  95993,  96001,  96045,  96358,  96709,  96765
  96853,  97236,  97993,  98107,  98281,  98783,  99073,  99239,  99643,  99902, 100750, 101269, 101546, 101590, 101610, 101622
 101647, 101707, 101809, 101823, 101958, 102013, 102079, 102205, 102228, 102331, 102362, 102415, 102577, 102596, 102624, 102634
 102660, 102681, 102709, 102717, 102736, 102741, 102746, 102747, 102770, 102829, 102866, 102962, 102982, 102996, 103007, 103018
 103022, 103041, 103058, 103060, 103073, 103085, 103093, 103100, 103109, 103139, 103140, 103144, 103150, 103158, 103161, 103172
 103203, 103204, 103205, 103227, 103254, 103319, 103327, 103331, 103427, 103438, 103449, 103487, 103510, 103547, 103569, 103608
 103640, 103650, 103668, 103670, 103674, 103693, 103716, 103721, 103733, 103754, 103770, 103773, 103782, 103814, 103817, 103824
 103831, 103833, 103835, 103848, 103865, 103877, 103904, 103906, 103909, 103919, 103946, 103960, 103968, 103980, 103983, 103984
 104015, 104027, 104036, 104055, 104083, 104109, 104122, 104124, 104136, 104150, 104157, 104165, 104170, 104172, 104239, 104242
 104247, 104257, 104316, 104331, 104393, 104400, 104416, 104419, 104425, 104436, 104451, 104460, 104484, 104492, 104539, 104548
** ... 17 like lines cut
*Elset, elset=_Surf-1_S4, internal
  64465,  75898,  76497,  76636,  77125,  77258,  77315,  77602,  77902,  78360,  78396,  78453,  78520,  78994,  79252,  79445
  79451,  79488,  79489,  79706,  79833,  79939,  80266,  80420,  80689,  80695,  80810,  80826,  80902,  81030,  81070,  81104
  81140,  81169,  81188,  81581,  81635,  81658,  81889,  82058,  82142,  82231,  82317,  82374,  82500,  82611,  82633,  82700
  82701,  82782,  82879,  83129,  83189,  83220,  83471,  83526,  83578,  83718,  83776,  83964,  84000,  84014,  84042,  84069
  84113,  84119,  84133,  84373,  84411,  84415,  84563,  84592,  84695,  84902,  84972,  84976,  85083,  85163,  85258,  85294
  85358,  85449,  85546,  85558,  85560,  85568,  85789,  85839,  85885,  85978,  86002,  86131,  86153,  86216,  86226,  86362
  86434,  86450,  86686,  86738,  86992,  87057,  87240,  87314,  87615,  87658,  87668,  87678,  87709,  87740,  87748,  87803
  87889,  87942,  88034,  88212,  88218,  88259,  88324,  88342,  88364,  88441,  88445,  88513,  88526,  88576,  88663,  88673
  88678,  88706,  88743,  88785,  88930,  88972,  89016,  89052,  89129,  89222,  89356,  89425,  89461,  89511,  89531,  89596
  89600,  89676,  89872,  90062,  90166,  90214,  90257,  90285,  90443,  90502,  90577,  90584,  90612,  90650,  90815,  90851
  90917,  90935,  91039,  91068,  91181,  91273,  91473,  91595,  91625,  91642,  91710,  91805,  91941,  92101,  92372,  92484
  92493,  92869,  92946,  93111,  93134,  93232,  93297,  93454,  93571,  93638,  93710,  93721,  93996,  94167,  94341,  94369
  94435,  94442,  94522,  94613,  94724,  94740,  94827,  95067,  95133,  95430,  95472,  95622,  95773,  95953,  96071,  96161
  96255,  96835,  96899,  96975,  96987,  97118,  97350,  97371,  97913,  98172,  98246,  98460,  98495,  98687,  98793,  98816
  98817,  99085,  99237, 100120, 100411, 101450, 101967, 102023, 102032, 102083, 102114, 102186, 102332, 102444, 102523, 102602
 102640, 102807, 102912, 103099, 103110, 103316, 103386, 103403, 103450, 103458, 103478, 103580, 103613, 103654, 103701, 103715
 103739, 103825, 103923, 103941, 103958, 104031, 104088, 104119, 104132, 104207, 104245, 104293, 104299, 104327, 104422, 104511
 104599, 104667, 104700, 104738, 104739, 104747, 104836, 104911, 104967, 105281, 105378, 105419, 105448, 105481, 105486, 105509
 105531, 105606, 105642, 105685, 106031, 106182, 106335, 106337, 106382, 106414, 106439, 106453, 106545, 106577, 106837, 107102
 107804, 107968, 108343, 108726, 111632, 119407, 120005, 135603, 135889, 136688, 136983, 137511, 137605, 137626, 137882, 138005
 138031, 138209, 138387, 138638, 138826, 140189, 140453, 140814, 141629, 141755, 141815, 142365, 142873, 142945, 143045, 143139
 143254, 143543, 144082, 144258, 144286, 144338, 144737, 144867, 145062, 145560, 145766, 146264, 146533, 146627, 146893, 147428
 147587, 147612, 148010, 149162, 153089, 153304
*Surface, type=ELEMENT, name=Surf-1
_Surf-1_S1, S1
_Surf-1_S2, S2
_Surf-1_S4, S4
_Surf-1_S3, S3
*Elset, elset=_Surf-2_S1, internal
  55170,  55831,  57370,  58345,  61069,  65824,  67763,  68943,  71078,  71630,  73744,  77634,  79070,  82785,  83343,  83479
  84746,  85129,  85923,  87725,  92323,  92788,  92982,  93667,  93976,  96867,  97484, 101036, 101348, 101908, 102412, 103043
 104262, 106167, 106559, 106793, 106997, 107445, 107522, 107982, 108482, 108772, 109078, 109204, 111530, 112422, 113219, 113346
 113529, 114017, 126784, 126803, 127539, 127629
*Elset, elset=_Surf-2_S2, internal
 144146, 153259
*Elset, elset=_Surf-2_S3, internal
 151121,
*Elset, elset=_Surf-2_S4, internal
 138617, 144994, 145007, 146910
*Surface, type=ELEMENT, name=Surf-2
_Surf-2_S1, S1
_Surf-2_S2, S2
_Surf-2_S4, S4
_Surf-2_S3, S3
*Elset, elset=_Surf-3_S1, internal
  53677,  53927,  54139,  54534,  55009,  55176,  55390,  56012,  56051,  56348,  56637,  56818,  56844,  57093,  57343,  57484
  57585,  58135,  58313,  58441,  58665,  58670,  58702,  58704,  59035,  59048,  59111,  59182,  59278,  59354,  59538,  59569
  59588,  59704,  59897,  60126,  60255,  60264,  60553,  60669,  60713,  60808,  60837,  60873,  60886,  60894,  60895,  61099
  61100,  61109,  61110,  61111,  61135,  61173,  61300,  61317,  61342,  61344,  61505,  61674,  61814,  61836,  61859,  62039
  62071,  62224,  62240,  62567,  62578,  62591,  62653,  62665,  62673,  62692,  62715,  62898,  62983,  63033,  63135,  63375
  63382,  63801,  63838,  63911,  64080,  64119,  64131,  64284,  64327,  64357,  64412,  64587,  64634,  64986,  64994,  65017
  65140,  65167,  65263,  65289,  65343,  65386,  65419,  65453,  65467,  65539,  65567,  65612,  65660,  65752,  65753,  65789
  65860,  65952,  65979,  65993,  66083,  66086,  66087,  66125,  66481,  66490,  66558,  66685,  66706,  66720,  66821,  66890
  66966,  66986,  67084,  67321,  67365,  67369,  67424,  67454,  67524,  67593,  67599,  67684,  67716,  67750,  67755,  67786
  67792,  67867,  67919,  67938,  67943,  67983,  68048,  68080,  68096,  68196,  68248,  68269,  68295,  68303,  68373,  68394
  68425,  68448,  68603,  68608,  68628,  68641,  68646,  68706,  68741,  68792,  68823,  68842,  68895,  69013,  69094,  69112
  69127,  69139,  69172,  69211,  69232,  69265,  69312,  69328,  69434,  69484,  69737,  69788,  69817,  69911,  69977,  70006
  70025,  70031,  70043,  70110,  70186,  70225,  70268,  70382,  70463,  70477,  70487,  70559,  70560,  70592,  70620,  70644
  70661,  70702,  70714,  70796,  70852,  70869,  71014,  71030,  71032,  71038,  71201,  71220,  71245,  71334,  71369,  71372
  71408,  71430,  71502,  71514,  71524,  71528,  71537,  71579,  71725,  71800,  71820,  71832,  71858,  71887,  71924,  72024
  72051,  72130,  72133,  72161,  72208,  72293,  72311,  72322,  72367,  72368,  72378,  72455,  72476,  72502,  72596,  72623
  72645,  72694,  72741,  72846,  72868,  72869,  72925,  73042,  73087,  73089,  73153,  73231,  73252,  73265,  73320,  73346
  73410,  73477,  73529,  73618,  73704,  73720,  73838,  73902,  74142,  74241,  74321,  74338,  74455,  74524,  74526,  74530
  74600,  74614,  74628,  74639,  74648,  74666,  74696,  74744,  74818,  74840,  74848,  74851,  74855,  74879,  74909,  74914
  74936,  74969,  74987,  75007,  75061,  75081,  75103,  75134,  75177,  75193,  75198,  75265,  75295,  75301,  75363,  75419
** ... 255 like lines cut
*Elset, elset=_Surf-3_S2, internal
  53343,  53369,  53408,  53439,  53493,  53514,  53547,  53639,  53641,  53819,  53882,  53924,  53985,  54106,  54312,  54337
  54527,  54570,  54596,  54703,  54715,  54894,  54979,  55084,  55155,  55227,  55394,  55395,  55589,  55658,  55880,  56013
  56331,  56605,  56610,  57177,  57220,  57404,  57583,  57815,  57867,  57877,  57964,  58041,  58244,  58260,  58398,  58915
  58949,  59097,  59283,  59522,  59542,  60007,  60271,  60532,  60869,  60916,  61021,  61373,  61377,  61424,  61686,  61770
  62047,  62357,  62524,  62828,  62864,  62871,  63103,  63215,  63285,  63714,  63755,  63805,  64323,  64436,  64799,  64811
  65085,  65118,  66079,  66909,  67080,  67520,  68157,  68163,  68554,  68908,  69004,  69099,  69133,  70052,  70947,  71187
  71257,  71314,  71336,  72119,  72329,  72336,  73482,  73843,  74471,  75056,  75262,  75347,  75656,  76283,  77143,  77224
  77250,  77419,  77530,  77553,  77608,  77892,  77998,  78000,  78329,  78665,  78761,  78801,  78856,  78899,  79248,  79381
  79734,  80188,  80194,  80319,  80435,  80482,  80586,  80599,  80912,  80939,  81171,  81181,  81201,  81384,  81523,  81541
  82219,  82333,  82698,  82817,  83073,  83242,  83323,  83751,  84126,  84196,  84219,  84366,  84473,  84723,  85297,  85454
  85561,  85585,  85643,  85741,  86210,  86289,  86861,  87001,  87254,  87270,  87291,  87450,  87545,  87581,  87633,  87672
  87793,  88402,  88559,  88679,  88685,  88885,  89220,  89282,  89363,  89429,  89570,  89619,  89628,  89657,  89792,  89843
  90387,  90508,  90552,  90561,  90847,  90880,  91083,  91088,  91186,  91203,  91235,  91245,  91314,  91717,  91839,  91875
  91947,  92041,  92191,  92195,  92399,  92469,  92648,  92879,  93179,  93211,  93262,  93728,  93938,  94201,  94343,  94378
  94464,  94760,  94972,  95503,  95719,  95741,  96240,  96267,  96330,  96486,  96583,  97063,  97162,  97241,  97326,  97385
  97452,  97645,  97892,  98036,  98140,  98194,  98296,  98341,  98498,  98691,  98740,  98826,  98963,  99175,  99451,  99470
  99618,  99642,  99657,  99932, 100005, 100040, 100065, 100148, 100164, 100321, 100440, 100664, 100708, 100794, 100850, 100892
 100902, 100969, 101043, 101118, 101168, 101360, 101363, 101390, 101463, 101583, 101648, 101728, 101791, 101832, 101881, 101900
 101905, 101951, 101991, 102065, 102087, 102126, 102237, 102276, 102304, 102381, 102458, 102490, 102510, 102545, 102755, 102886
 102923, 102946, 102975, 103119, 103186, 103192, 103220, 103260, 103313, 103329, 103330, 103336, 103366, 103395, 103408, 103419
** ... 60 like lines cut
*Elset, elset=_Surf-3_S3, internal
  53335,  53573,  53606,  53711,  53815,  54008,  54100,  54188,  54381,  54403,  54445,  54594,  54827,  55195,  55210,  55298
  55438,  55472,  55603,  55606,  55747,  55839,  55853,  56043,  56078,  56148,  56820,  57153,  57174,  57205,  57441,  57681
  58745,  59094,  59666,  60180,  60390,  60484,  60592,  60714,  61252,  61497,  61584,  61763,  61954,  62749,  62902,  63513
  63721,  63851,  63963,  64112,  64118,  64266,  64577,  64589,  65302,  65719,  65820,  65895,  66054,  66192,  67428,  67839
  69106,  69730,  71542,  72099,  72882,  73056,  73411,  74966,  76146,  76574,  76899,  77035,  77210,  77293,  77345,  77366
  77672,  77850,  78190,  78447,  78465,  78481,  78523,  78695,  78709,  78722,  78966,  79209,  79464,  79532,  79643,  79743
  79854,  79994,  80352,  80818,  81365,  81381,  81534,  81629,  81736,  81775,  81777,  82101,  82174,  82576,  82596,  82602
  82753,  82789,  83093,  83212,  83223,  83438,  83593,  83626,  83703,  83834,  83863,  83865,  84015,  84124,  84234,  84574
  84642,  84740,  84907,  84991,  85035,  85116,  85121,  85179,  85185,  85484,  85521,  85545,  85652,  85782,  85861,  86236
  86495,  86637,  86732,  87012,  87336,  87412,  87514,  87549,  87661,  87825,  87863,  87898,  88219,  88247,  88506,  88871
  88976,  89057,  89277,  89466,  89847,  89907,  90117,  90509,  90536,  90627,  90796,  90888,  91124,  91152,  91317,  91599
  91645,  92229,  92259,  92774,  92965,  93108,  93267,  93406,  93572,  93736,  93779,  94131,  94149,  94162,  94268,  94349
  94752,  94808,  95109,  95216,  95402,  95544,  95562,  95764,  95822,  96114,  96302,  96346,  96589,  96614,  97342,  97343
  97378,  97449,  97563,  97782,  98077,  98182,  98336,  98387,  98459,  98512,  98550,  98611,  98712,  99031,  99041,  99166
  99260,  99461,  99485,  99486,  99555,  99679,  99719,  99813, 100031, 100074, 100278, 100499, 100519, 100777, 100817, 100842
 101006, 101415, 101690, 101999, 102022, 102286, 102402, 102460, 102522, 102524, 102555, 102564, 102584, 102588, 102629, 102668
 102694, 102839, 102840, 102857, 102902, 102907, 102949, 102973, 103000, 103045, 103129, 103152, 103164, 103181, 103185, 103429
 103444, 103465, 103488, 103502, 103505, 103525, 103568, 103590, 103602, 103607, 103616, 103624, 103645, 103675, 103698, 103711
 103734, 103745, 103867, 103913, 104004, 104019, 104099, 104104, 104192, 104225, 104318, 104322, 104386, 104428, 104447, 104473
 104479, 104494, 104525, 104600, 104613, 104619, 104655, 104771, 104855, 104859, 104926, 104941, 104942, 105004, 105025, 105062
** ... 44 like lines cut
*Elset, elset=_Surf-3_S4, internal
  53305,  53401,  53636,  53845,  54005,  54058,  54089,  54097,  54175,  54279,  54370,  54378,  54415,  54525,  54547,  54641
  54655,  54660,  54671,  54700,  54722,  54756,  54844,  55216,  55266,  55362,  55689,  55819,  55824,  55986,  56446,  56800
  56837,  57007,  57099,  57262,  57923,  58424,  58771,  59244,  59824,  60197,  60213,  60798,  61039,  61458,  62069,  62287
  62325,  62335,  63163,  63496,  63776,  63828,  63829,  64209,  64509,  64526,  65384,  65639,  65885,  66136,  66362,  66536
  67457,  67978,  68370,  68721,  69331,  69376,  69558,  69712,  70134,  70288,  70742,  71429,  71609,  72102,  72218,  73142
  73362,  73433,  73882,  74108,  74443,  74670,  74901,  75055,  75264,  75724,  75819,  75890,  76221,  76463,  76863,  77025
  77798,  78097,  78261,  78988,  79545,  79651,  79810,  80403,  80434,  80450,  80566,  80699,  80745,  80762,  80854,  81526
  82036,  82259,  82578,  82696,  82805,  83065,  83112,  83398,  83985,  84097,  84310,  84921,  85079,  85134,  85253,  85272
  85332,  85426,  85621,  85642,  85842,  85850,  85926,  86019,  86230,  86388,  86422,  86586,  86650,  86960,  86999,  87103
  87116,  87165,  87199,  87402,  87428,  87552,  87603,  87715,  87839,  87861,  87907,  87938,  88049,  88162,  88165,  88276
  88760,  88904,  89125,  89235,  89308,  89478,  90139,  90202,  90209,  90570,  90587,  91038,  91360,  91753,  91863,  91955
  92273,  92344,  92350,  92364,  92499,  92532,  92544,  92559,  92593,  92633,  92664,  92704,  92754,  92921,  93152,  93165
  93212,  93241,  93346,  93368,  93648,  93722,  93773,  93884,  93989,  94577,  94671,  94675,  94946,  94955,  95034,  95321
  95399,  95640,  95904,  95910,  96035,  96088,  96109,  96180,  96186,  96355,  96407,  96464,  96500,  96578,  96599,  96724
  96759,  97064,  97410,  97464,  97482,  97668,  97718,  97796,  97852,  98274,  98559,  98690,  98910,  98992,  99249,  99524
  99687,  99725,  99845,  99887,  99977, 100013, 100204, 100457, 100523, 100650, 100746, 100780, 100891, 101012, 101105, 101197
 101230, 101444, 101468, 101780, 101996, 102754, 102843, 102851, 102965, 103002, 103104, 103121, 103201, 103335, 103402, 103454
 103541, 103556, 103714, 103948, 103949, 103956, 103959, 104196, 104213, 104223, 104238, 104269, 104502, 104945, 104996, 105311
 105373, 105568, 105646, 105902, 105913, 106029, 106101, 106137, 106165, 106259, 106405, 106427, 106446, 106544, 106662, 106768
 106878, 106903, 107033, 107220, 107257, 107281, 107816, 108369, 108488, 108505, 108731, 108915, 108935, 108962, 109368, 109464
** ... 48 like lines cut
*Surface, type=ELEMENT, name=Surf-3
_Surf-3_S1, S1
_Surf-3_S2, S2
_Surf-3_S4, S4
_Surf-3_S3, S3
*Elset, elset=_Surf-4_S1, internal
  63389,  69822,  86746, 118536, 120172, 120375, 121100, 121189, 121411, 121414, 121417, 121426, 121651, 121653, 121666, 121668
 121673, 121677, 121680, 121683, 121684, 121685, 121701, 121703, 121704, 121706, 121774, 121781, 121842, 121861, 121868, 121880
 121924, 121928, 121930, 122213, 122219, 122224, 122225, 122229, 122230, 122232, 122290, 122291, 122292, 122293, 122848, 122850
 122851, 122853, 122890, 122892, 122898, 122899, 122901, 122903, 122904, 122905, 122908, 122910, 122912, 122913, 122917, 122964
 122969, 122996, 124259, 124283, 124289, 124292, 124313, 124339, 124347, 124353, 124359, 124361, 124362, 124380, 124397, 124400
 124410, 124411, 124433, 124439, 124440, 124443, 124444, 124446, 124451, 124767, 124788, 124806, 124823, 124824, 124827, 124829
 124830, 124831, 124982, 124987, 124990, 125119, 125162, 125164, 125167, 125168, 125169, 125171, 125173, 125194, 125196, 125217
 125218, 125223, 125225, 125226, 125229, 125230, 125231, 125232, 125233, 125236, 125288, 125297, 125300, 125302, 125304, 125306
*Elset, elset=_Surf-4_S2, internal
  54020,  54880,  55335,  55847,  56365,  56492,  57310,  59583,  67745, 118707, 120208, 120284, 120491, 120708, 120715, 121109
 121110, 121115, 121186, 121403, 121416, 121449, 121466, 121655, 121672, 121679, 121689, 121725, 121726, 121727, 121733, 121734
 121738, 121743, 121746, 121748, 121749, 121750, 121752, 121753, 121755, 121764, 121766, 121769, 121788, 121791, 121806, 121821
 121838, 121840, 121858, 121863, 121878, 121894, 121895, 121901, 121905, 121915, 121919, 121925, 121927, 122201, 122202, 122206
 122207, 122211, 122220, 122237, 122251, 122252, 122254, 122266, 122278, 122285, 122299, 122815, 122818, 122822, 122858, 122859
 122864, 122885, 122886, 122919, 122923, 122928, 122929, 122940, 122941, 122944, 122948, 122952, 122957, 122959, 122999, 123000
 123005, 123008, 123009, 123013, 123017, 123018, 123037, 123044, 123045, 123046, 123047, 123048, 123049, 123052, 123061, 123064
 123068, 123072, 123076, 123082, 123085, 124258, 124260, 124262, 124263, 124268, 124273, 124274, 124287, 124288, 124308, 124318
 124321, 124326, 124329, 124331, 124349, 124367, 124372, 124378, 124382, 124383, 124384, 124385, 124386, 124388, 124389, 124390
 124392, 124394, 124396, 124401, 124422, 124660, 124682, 124715, 124716, 124718, 124720, 124723, 124730, 124735, 124744, 124752
 124757, 124798, 124800, 124836, 124840, 124842, 124843, 124851, 124854, 124857, 124864, 124969, 124977, 124989, 124991, 124994
 125028, 125029, 125031, 125039, 125040, 125049, 125050, 125054, 125055, 125067, 125072, 125073, 125076, 125077, 125079, 125082
 125087, 125088, 125090, 125092, 125094, 125096, 125099, 125100, 125109, 125110, 125111, 125112, 125116, 125118, 125120, 125123
 125124, 125128, 125133, 125152, 125153, 125154, 125155, 125159, 125176, 125178, 125179, 125182, 125184, 125185, 125190, 125199
 125200, 125205, 125207, 125209, 125210, 125248, 125249, 125291, 125294, 125295, 132244, 134850, 134965, 135011, 135097, 135175
 135274, 135385, 135400, 135422, 135497, 135537, 135681, 135750, 135753, 135759, 135903, 136238, 136533, 136566, 136648, 136667
 136729, 136952, 137096, 137227, 137408, 137530, 138836, 138894, 139066, 139136, 139270, 139530, 142337, 142953, 143306, 144208
 147716, 151088
*Elset, elset=_Surf-4_S3, internal
  54429,  56319,  57188,  57975,  63027,  76920, 104377, 105050, 114819, 118868, 120100, 120124, 120177, 120512, 120798, 121099
 121415, 121419, 121428, 121442, 121656, 121657, 121670, 121678, 121723, 121728, 121729, 121735, 121739, 121742, 121758, 121760
 121762, 121767, 121772, 121789, 121790, 121798, 121801, 121807, 121812, 121839, 121844, 121851, 121853, 121854, 121867, 121876
 121881, 121884, 121893, 121907, 121909, 121917, 121933, 121934, 122148, 122204, 122223, 122228, 122236, 122297, 122502, 122817
 122819, 122824, 122829, 122861, 122887, 122888, 122894, 122896, 122939, 122946, 122950, 122954, 122968, 122970, 123004, 123051
 123057, 123060, 124314, 124323, 124336, 124341, 124348, 124351, 124365, 124366, 124373, 124391, 124395, 124407, 124412, 124413
 124434, 124697, 124722, 124725, 124727, 124728, 124729, 124731, 124746, 124748, 124754, 124839, 124846, 124872, 124986, 125042
 125048, 125058, 125061, 125062, 125066, 125078, 125080, 125085, 125108, 125117, 125125, 125127, 125134, 125135, 125157, 125177
 125186, 125192, 125203, 125204, 125206, 125219, 125222, 125293, 125296, 125308, 125309, 125310, 132134, 132264, 133770, 134683
 134713, 134733, 134761, 134783, 134875, 134925, 134933, 135055, 135128, 135206, 135272, 135310, 135350, 135449, 135579, 135653
 135795, 135953, 135979, 136053, 136127, 136181, 136261, 136319, 136376, 136574, 136780, 136858, 137055, 137197, 137327, 137634
 137765, 137886, 138021, 138782, 138911, 139057, 139256, 139626, 139847, 139922, 140066, 140447, 146015
*Elset, elset=_Surf-4_S4, internal
  53842,  53892,  55108,  55467,  57608,  74551,  90204, 103020, 119438, 120109, 120209, 120210, 120489, 120499, 120696, 120709
 120717, 120814, 121173, 121404, 121406, 121407, 121410, 121413, 121431, 121448, 121472, 121473, 121652, 121665, 121669, 121719
 121724, 121732, 121736, 121740, 121741, 121747, 121754, 121776, 121777, 121778, 121779, 121785, 121792, 121794, 121803, 121814
 121843, 121846, 121849, 121850, 121866, 121875, 121877, 121883, 121900, 121902, 121904, 121910, 121911, 121912, 121913, 121914
 121918, 121920, 121922, 121923, 122209, 122214, 122249, 122280, 122281, 122282, 122296, 122298, 122816, 122821, 122893, 122895
 122907, 122915, 122938, 122942, 122943, 122945, 122949, 122951, 122953, 122955, 122960, 122972, 123010, 123012, 123014, 123016
 123027, 123032, 123038, 123055, 123062, 123067, 123071, 123073, 123077, 123081, 123802, 124257, 124297, 124325, 124330, 124332
 124334, 124335, 124340, 124346, 124350, 124355, 124364, 124369, 124393, 124398, 124406, 124408, 124414, 124437, 124693, 124726
 124741, 124742, 124743, 124747, 124750, 124751, 124759, 124766, 124770, 124780, 124796, 124797, 124799, 124801, 124802, 124804
 124810, 124835, 124837, 124838, 124845, 124847, 124848, 124849, 124867, 124871, 124979, 124992, 125027, 125033, 125041, 125045
 125051, 125057, 125063, 125075, 125081, 125086, 125089, 125097, 125106, 125107, 125121, 125126, 125129, 125130, 125131, 125147
 125151, 125156, 125161, 125181, 125191, 125197, 125208, 125211, 125212, 125290, 132240, 135473, 136278, 136919, 138934, 139187
 140273, 147465, 147589, 147745
*Surface, type=ELEMENT, name=Surf-4
_Surf-4_S1, S1
_Surf-4_S2, S2
_Surf-4_S4, S4
_Surf-4_S3, S3
*Elset, elset=_Surf-5_S1, internal
 120083, 120102, 120424, 120794, 121117, 121176, 121184, 121459, 121487, 121563, 121564, 121571, 121578, 121590, 121591, 121597
 121600, 121619, 121621, 121623, 121624, 121627, 121633, 121634, 121635, 121637, 121639, 121642, 121644, 121646, 121648, 121810
 121873, 121888, 121890, 122001, 122002, 122003, 122243, 122244, 122283, 122709, 122995, 124293, 124295, 124299, 124301, 124303
 124304, 124305, 124307, 124379, 124405, 124416, 124417, 124418, 124421, 124423, 124425, 124426, 124427, 124429, 124431, 124432
 124448, 124449, 124452, 124455, 124456, 124458, 124482, 124484, 124501, 124504, 124506, 124507, 124508, 124516, 124517, 124518
 124519, 124587, 124666, 124668, 124671, 124676, 124677, 124696, 124702, 124703, 124704, 124705, 124707, 124709, 124710, 124785
 124793, 124812, 124819, 124821, 124877, 124894, 124927, 124930, 124932, 124936, 124941, 124942, 124975, 124999, 125000, 125003
 125005, 125008, 125011, 125013, 125015, 125018, 125021, 125023, 125557, 125559, 125567, 125571, 125581, 125582, 125586, 125588
 132251, 132253, 133622, 133925, 133929
*Elset, elset=_Surf-5_S2, internal
 120099, 120222, 120475, 120713, 121178, 121187, 121412, 121436, 121441, 121445, 121455, 121468, 121490, 121497, 121500, 121510
 121519, 121567, 121569, 121572, 121574, 121575, 121579, 121581, 121587, 121595, 121596, 121601, 121614, 121616, 121617, 121643
 121649, 121654, 121662, 121686, 121687, 121707, 121708, 121710, 121711, 121721, 121809, 121820, 121824, 121827, 121828, 121832
 121847, 121896, 121943, 121951, 121960, 121968, 121995, 122007, 122013, 122015, 122018, 122022, 122024, 122026, 122029, 122030
 122032, 122060, 122134, 122138, 122139, 122141, 122143, 122144, 122153, 122160, 122169, 122185, 122227, 122235, 122240, 122245
 122246, 122256, 122260, 122262, 122263, 122271, 122272, 122480, 122483, 122485, 122490, 122491, 122496, 122503, 122505, 122508
 122516, 122522, 122531, 122704, 122706, 122714, 122715, 122717, 122722, 122733, 122734, 122735, 122738, 122739, 122744, 122750
 122753, 122760, 122766, 122770, 122774, 122777, 122778, 122779, 122783, 122787, 122793, 122800, 122801, 122804, 122808, 122809
 122811, 122812, 122827, 122835, 122838, 122841, 122844, 122866, 122868, 122869, 122876, 122878, 122880, 122882, 122974, 122981
 122985, 122990, 122992, 123031, 123033, 123034, 123035, 123036, 123039, 123040, 123058, 124272, 124294, 124415, 124469, 124471
 124481, 124490, 124491, 124500, 124502, 124503, 124513, 124514, 124592, 124599, 124651, 124653, 124656, 124669, 124684, 124685
 124699, 124782, 124789, 124808, 124858, 124860, 124861, 124873, 124875, 124885, 124937, 124938, 124997, 125240, 125251, 125252
 125253, 125254, 125264, 125266, 125270, 125275, 125277, 125278, 125279, 125285, 125286, 125312, 125313, 125315, 125323, 125340
 125352, 125356, 125358, 125371, 125376, 125382, 125384, 125396, 125399, 125402, 125403, 125411, 125412, 125414, 125415, 125418
 125496, 125497, 125499, 125500, 125506, 125507, 125511, 125519, 125522, 125524, 125528, 125551, 125554, 125560, 125562, 125575
 125578, 125591, 125592, 125595, 125598, 125603, 132242, 133578, 133906, 134750, 134826, 134846, 134854, 134946, 134954, 135002
 135089, 135125, 135187, 135239, 135281, 135337, 135338, 135680, 136017, 136024, 136324, 136398, 136602, 136800, 136864, 137016
 137049, 137262, 137271, 137513, 137729, 137875, 137977, 138086, 138386, 138427, 138865, 139012, 139040, 139049, 139178, 139226
 139254, 139396, 139564, 139757, 139790, 139913, 140002, 140041, 140057, 140123, 140157, 140303, 141477, 142026, 143580, 144711
*Elset, elset=_Surf-5_S3, internal
 120107, 120478, 120515, 120712, 121113, 121425, 121471, 121482, 121492, 121518, 121521, 121541, 121566, 121582, 121584, 121589
 121602, 121615, 121618, 121663, 121676, 121688, 121699, 121712, 121714, 121716, 121720, 121761, 121797, 121804, 121805, 121817
 121826, 121830, 121961, 121980, 122011, 122012, 122017, 122021, 122034, 122042, 122044, 122097, 122133, 122136, 122140, 122146
 122152, 122155, 122157, 122164, 122233, 122239, 122241, 122269, 122273, 122479, 122484, 122486, 122514, 122700, 122702, 122732
 122745, 122759, 122761, 122764, 122773, 122788, 122794, 122814, 122820, 122830, 122832, 122836, 122839, 122846, 122865, 122874
 122975, 122976, 122982, 122991, 123001, 123021, 124279, 124464, 124476, 124497, 124512, 124566, 124585, 124683, 124719, 124814
 124884, 124895, 124933, 124939, 124970, 125024, 125243, 125250, 125258, 125271, 125272, 125281, 125319, 125320, 125325, 125343
 125346, 125355, 125357, 125367, 125373, 125380, 125386, 125388, 125395, 125397, 125401, 125407, 125410, 125416, 125417, 125490
 125501, 125502, 125503, 125504, 125505, 125552, 125555, 125561, 125569, 125577, 125594, 125596, 125602, 125605, 132228, 132239
 133899, 133917, 134737, 134771, 135035, 135156, 135226, 135461, 135479, 135673, 135803, 135841, 136173, 136390, 136594, 136772
 136854, 136961, 137443, 138162, 138235, 138581, 138728, 138735, 139455, 139597, 139661, 139698, 140102, 140667, 140999, 141872
 143623,
*Elset, elset=_Surf-5_S4, internal
 120217, 120221, 120519, 120692, 120707, 120739, 121098, 121439, 121457, 121458, 121460, 121486, 121506, 121570, 121576, 121588
 121592, 121594, 121661, 121692, 121718, 121802, 121811, 121831, 121882, 121887, 121897, 121898, 121903, 122016, 122019, 122031
 122125, 122126, 122130, 122131, 122145, 122149, 122154, 122168, 122234, 122248, 122253, 122277, 122694, 122707, 122718, 122719
 122731, 122748, 122749, 122758, 122775, 122782, 122786, 122789, 122791, 122795, 122805, 122828, 122831, 122845, 122856, 122871
 122872, 122879, 122881, 122978, 122979, 122986, 122989, 122993, 122994, 123024, 123043, 124291, 124296, 124298, 124319, 124460
 124466, 124494, 124499, 124505, 124539, 124582, 124591, 124595, 124654, 124655, 124662, 124686, 124687, 124695, 124755, 124763
 124791, 124792, 124859, 124869, 124879, 124968, 124973, 124978, 125221, 125255, 125256, 125268, 125269, 125273, 125282, 125283
 125311, 125314, 125324, 125326, 125353, 125362, 125366, 125369, 125387, 125393, 125398, 125400, 125405, 125408, 125409, 125413
 125420, 125498, 125508, 125509, 125512, 125527, 125553, 125556, 125564, 125565, 125576, 125597, 125599, 125601, 132175, 132238
*Surface, type=ELEMENT, name=Surf-5
_Surf-5_S1, S1
_Surf-5_S2, S2
_Surf-5_S4, S4
_Surf-5_S3, S3
*Elset, elset=_Surf-6_S1, internal
 103187, 120484, 120687, 120743, 121446, 121477, 121478, 121483, 121495, 121496, 121501, 121523, 121544, 121545, 121548, 121550
 121559, 121560, 121604, 121612, 121613, 121630, 121954, 121955, 121963, 121973, 121974, 122047, 122048, 122062, 122066, 122067
 122069, 122071, 122072, 122073, 122075, 122077, 122078, 122081, 122083, 122084, 122087, 122088, 122091, 122476, 122544, 122548
 122558, 122577, 122631, 122633, 122634, 122635, 122684, 122687, 122690, 122726, 122768, 124495, 124547, 124606, 124618, 124626
 124633, 124639, 124642, 124644, 124646, 124672, 124675, 124891, 124900, 124910, 124913, 124929, 124949, 124950, 124951, 124955
 124960, 124961, 124963, 125390, 125392, 125469, 125478, 125481, 125482, 125531, 125532, 125535, 125636, 125639, 125640, 125643
 125644, 125647, 125648, 125650, 125652, 125654, 125656, 126117, 128332, 128334, 128335, 128338, 128341, 129099, 129114, 129115
 129117, 129118
*Elset, elset=_Surf-6_S2, internal
 120075, 120495, 120513, 120514, 120522, 120749, 120764, 120797, 121181, 121474, 121484, 121494, 121502, 121514, 121520, 121529
 121530, 121535, 121538, 121539, 121555, 121562, 121598, 121603, 121605, 121610, 121611, 121631, 121946, 121947, 121952, 121959
 121975, 121999, 122014, 122036, 122085, 122090, 122103, 122109, 122111, 122114, 122161, 122166, 122170, 122171, 122177, 122182
 122183, 122187, 122193, 122276, 122495, 122524, 122526, 122532, 122533, 122534, 122536, 122539, 122541, 122542, 122545, 122549
 122563, 122567, 122576, 122578, 122580, 122581, 122589, 122591, 122592, 122600, 122608, 122612, 122614, 122622, 122644, 122648
 122656, 122662, 122669, 122671, 122672, 122676, 122678, 122716, 122721, 122723, 122724, 122728, 122729, 122797, 124302, 124324
 124461, 124463, 124473, 124474, 124483, 124529, 124534, 124543, 124545, 124546, 124557, 124560, 124565, 124567, 124568, 124572
 124573, 124577, 124579, 124604, 124622, 124623, 124625, 124628, 124657, 124688, 124901, 124902, 124918, 124920, 124921, 124966
 125332, 125334, 125336, 125337, 125338, 125339, 125341, 125377, 125421, 125427, 125431, 125434, 125435, 125436, 125440, 125441
 125442, 125443, 125445, 125447, 125452, 125453, 125466, 125467, 125468, 125475, 125476, 125484, 125486, 125487, 125493, 125510
 125517, 125520, 125525, 125610, 125612, 125617, 125628, 125629, 125632, 125633, 125634, 125660, 125716, 125756, 125757, 125761
 125789, 125801, 125810, 125811, 126247, 126266, 126455, 126458, 126465, 126468, 126485, 126501, 126502, 126504, 126516, 126538
 126539, 128099, 128127, 128138, 128139, 128216, 128223, 128235, 128236, 128269, 128270, 128286, 128370, 128372, 128414, 128417
 128975, 129064, 129072, 130810, 130843, 130845, 130846, 131832, 132201, 132207, 132208, 133584, 133587, 133595, 133807, 133871
 133874, 133878, 133887, 133913, 134680, 134746, 134950, 135018, 135508, 135726, 135914, 136005, 136088, 136370, 136424, 136682
 136784, 136933, 137009, 137172, 137331, 137733, 137919, 137988, 138274, 138416, 138655, 138941, 139199, 139345, 139381, 139818
 139826, 140092, 140407, 140662, 140687, 141016, 141533, 141745, 141910, 142334, 142461, 142531, 142806, 143422, 143785, 143997
 144037, 144197, 144562, 144900, 144939, 145012, 145892, 146270, 146594, 147175
*Elset, elset=_Surf-6_S3, internal
 110512, 120218, 120394, 120428, 120686, 120724, 120804, 121116, 121461, 121462, 121475, 121476, 121488, 121516, 121536, 121537
 121542, 121553, 121606, 121608, 121808, 121936, 121944, 121956, 121964, 121978, 121983, 121997, 122040, 122059, 122116, 122156
 122162, 122518, 122527, 122537, 122547, 122552, 122553, 122555, 122556, 122560, 122562, 122566, 122568, 122570, 122573, 122574
 122575, 122588, 122607, 122609, 122616, 122617, 122619, 122620, 122621, 122626, 122627, 122629, 122642, 122649, 122660, 122661
 122665, 122674, 122675, 122681, 122689, 122730, 122796, 124465, 124467, 124470, 124478, 124486, 124521, 124523, 124535, 124542
 124548, 124549, 124570, 124613, 124627, 124635, 124636, 124637, 124689, 124889, 124923, 124924, 124926, 125287, 125316, 125318
 125333, 125347, 125383, 125429, 125457, 125458, 125471, 125489, 125491, 125513, 125521, 125526, 125530, 125537, 125541, 125549
 125615, 125620, 125621, 125623, 125624, 125625, 125631, 125701, 125724, 125767, 125768, 125773, 126309, 126498, 126527, 126542
 128125, 128145, 128215, 128233, 128237, 128239, 128279, 128413, 128415, 129063, 130853, 133872, 133885, 133886, 133896, 133898
 133915, 134799, 134878, 135092, 135152, 135242, 135322, 135375, 135457, 135465, 135893, 136169, 136297, 136478, 136520, 137217
 137257, 137460, 137869, 138174, 138199, 138680, 138906, 139273, 139350, 139540, 139544, 139713, 139744, 139795, 140009, 140053
 140290, 140311, 140393, 141120, 141600, 141934, 142136, 142286, 142599, 142678, 143080, 143982, 144507, 145512, 145644
*Elset, elset=_Surf-6_S4, internal
  78227, 120097, 120101, 120280, 120490, 121434, 121443, 121454, 121485, 121489, 121491, 121504, 121507, 121511, 121525, 121527
 121528, 121531, 121532, 121534, 121543, 121599, 121609, 121965, 121966, 121976, 121979, 121984, 121987, 121996, 121998, 122095
 122098, 122106, 122107, 122112, 122113, 122115, 122150, 122167, 122179, 122186, 122188, 122475, 122528, 122540, 122543, 122551
 122559, 122561, 122564, 122569, 122571, 122572, 122579, 122582, 122583, 122615, 122618, 122623, 122624, 122625, 122645, 122651
 122663, 122667, 122682, 122725, 122798, 122802, 124322, 124498, 124537, 124540, 124541, 124562, 124575, 124576, 124580, 124904
 124905, 124919, 124922, 124965, 124967, 125344, 125345, 125381, 125430, 125433, 125437, 125439, 125446, 125448, 125459, 125470
 125474, 125477, 125483, 125488, 125492, 125516, 125548, 125607, 125614, 125619, 125622, 125627, 125630, 125635, 125766, 125803
 126431, 126453, 126496, 126500, 126541, 128126, 128209, 128213, 128214, 128218, 128234, 128265, 128268, 128284, 128337, 128339
 128369, 128418, 128989, 128995, 129061, 129065, 129066, 130851, 130955, 132182, 132183, 133520, 133880, 133881, 133882, 133883
 133891, 133893, 133895, 133897
*Surface, type=ELEMENT, name=Surf-6
_Surf-6_S1, S1
_Surf-6_S2, S2
_Surf-6_S4, S4
_Surf-6_S3, S3
*Elset, elset=_Surf-7_S1, internal
  98820, 120114, 121447, 122190, 125659, 125684, 125699, 125705, 125717, 125736, 125739, 125744, 125745, 125753, 125754, 125759
 125771, 125782, 125820, 125822, 125823, 125829, 125833, 125843, 126015, 126105, 126109, 126110, 126112, 126251, 126425, 126432
 126440, 126446, 126448, 126494, 126505, 126514, 126515, 126556, 127794, 128130, 128132, 128140, 128141, 128196, 128198, 128202
 128203, 128206, 128222, 128232, 128241, 128242, 128244, 128245, 128247, 128261, 128264, 128267, 128272, 128277, 128294, 128296
 128306, 128308, 128309, 128311, 128312, 128315, 128316, 128318, 128344, 128345, 128381, 128382, 128384, 128385, 128387, 128390
 128391, 128392, 128395, 128397, 128398, 128399, 128400, 128404, 128406, 128436, 128864, 128866, 128871, 128872, 128873, 128875
 128876, 128881, 128885, 128887, 128889, 128890, 128893, 128900, 128904, 128905, 128906, 128908, 128910, 128971, 128976, 128984
 128997, 129036, 129042, 129043, 129045, 129067, 129068, 129070, 129071, 129098, 129109, 129112, 129132, 129141, 129142, 129143
 129145, 129146, 129148, 129150, 129151, 129152, 129154, 129157, 129158, 129160, 129167, 129170, 129175, 129197, 129202, 129203
 129206, 129207, 129208, 129210, 129211, 129213, 129214, 129219, 129221, 131132, 131699
*Elset, elset=_Surf-7_S2, internal
  97700, 120378, 120735, 121479, 121939, 121969, 122049, 122105, 122189, 122474, 124527, 124551, 124612, 124807, 125479, 125661
 125662, 125666, 125669, 125680, 125686, 125694, 125702, 125709, 125710, 125718, 125727, 125730, 125737, 125742, 125743, 125748
 125752, 125777, 125778, 125781, 125786, 125799, 125804, 125808, 125813, 125817, 125824, 125828, 125847, 126079, 126113, 126243
 126275, 126276, 126300, 126302, 126304, 126428, 126430, 126433, 126436, 126447, 126456, 126461, 126462, 126473, 126476, 126486
 126488, 126492, 126499, 126512, 126518, 126522, 126523, 126525, 126531, 126534, 126536, 126537, 126551, 126560, 126562, 126563
 126564, 126569, 126579, 126589, 126593, 126595, 126596, 126624, 126625, 127793, 128038, 128046, 128091, 128098, 128106, 128110
 128153, 128162, 128163, 128165, 128184, 128186, 128187, 128194, 128195, 128208, 128219, 128220, 128225, 128251, 128254, 128271
 128273, 128280, 128283, 128288, 128289, 128291, 128292, 128297, 128321, 128323, 128324, 128359, 128373, 128374, 128376, 128379
 128431, 128438, 128443, 128444, 128446, 128449, 128453, 128456, 128477, 128484, 128486, 128500, 128505, 128507, 128509, 128895
 128913, 128931, 128935, 128940, 128957, 128960, 128967, 128982, 128985, 128987, 128993, 128994, 128996, 129000, 129014, 129032
 129046, 129047, 129048, 129051, 129055, 129056, 129058, 129069, 129078, 129079, 129083, 129103, 129108, 129122, 129123, 129125
 129129, 129134, 129137, 129169, 130814, 131831, 134751, 134834, 135061, 135221, 135396, 135640, 135646, 135694, 135718, 135838
 136166, 136381, 136617, 136656, 136815, 136876, 137160, 137504, 137569, 137808, 137844, 137959, 138035, 138315, 138420, 138593
 138703, 138815, 138977, 139385, 139402, 139740, 139801, 139843, 139925, 140139, 140230, 140317, 140701, 140702, 140933, 141262
 141508, 141886, 142106, 142234, 142345, 142604, 142760, 142882, 143199, 143261, 143972, 144103, 144514, 144689, 144785, 145034
 145210, 145292, 145358, 145615, 145620, 145905, 146195, 146277, 147433, 147505, 147519, 147567, 148219, 148764, 150549, 150660
 150878,
*Elset, elset=_Surf-7_S3, internal
 120734, 122192, 124552, 124601, 125428, 125670, 125683, 125687, 125693, 125698, 125707, 125711, 125713, 125715, 125725, 125741
 125750, 125763, 125780, 125783, 125785, 125787, 125790, 125794, 125795, 125812, 125827, 125832, 125834, 125871, 125892, 126055
 126132, 126147, 126153, 126240, 126241, 126244, 126255, 126278, 126423, 126427, 126438, 126475, 126489, 126497, 126510, 126520
 126552, 126554, 126567, 126568, 126570, 126581, 126583, 126597, 126618, 126620, 126621, 126623, 128112, 128115, 128123, 128124
 128135, 128144, 128154, 128170, 128173, 128191, 128193, 128210, 128224, 128253, 128278, 128282, 128285, 128298, 128310, 128328
 128358, 128361, 128365, 128366, 128378, 128433, 128441, 128447, 128461, 128481, 128495, 128496, 128506, 128508, 128933, 128938
 128947, 128956, 128965, 128973, 128988, 128990, 128998, 129004, 129031, 129035, 129041, 129050, 129053, 129057, 129077, 129105
 129120, 129124, 129128, 129135, 129168, 129173, 131686, 134765, 134911, 135051, 135202, 135383, 135547, 135831, 136003, 136036
 136224, 136421, 137154, 137348, 137483, 137520, 137664, 138186, 139717, 139748, 140005, 140088, 140184, 140194, 140340, 140535
 140555, 140875, 141276, 141751, 142469, 143611, 144358, 144365, 145148, 145950, 146663, 146997, 147274, 147516, 147680, 147792
 147901, 148426, 149002
*Elset, elset=_Surf-7_S4, internal
  96825, 101380, 106702, 120088, 120748, 122053, 122117, 122200, 124475, 124916, 124917, 125663, 125664, 125682, 125689, 125695
 125696, 125700, 125714, 125719, 125721, 125740, 125747, 125749, 125751, 125776, 125779, 125784, 125792, 125796, 125800, 125806
 125807, 125809, 125830, 125831, 125849, 125866, 126092, 126104, 126108, 126137, 126269, 126282, 126294, 126299, 126306, 126426
 126439, 126449, 126454, 126484, 126490, 126503, 126508, 126511, 126517, 126519, 126577, 126580, 126584, 126594, 126617, 128117
 128133, 128152, 128164, 128167, 128185, 128189, 128190, 128192, 128200, 128201, 128211, 128231, 128281, 128287, 128301, 128313
 128327, 128330, 128362, 128367, 128375, 128377, 128420, 128424, 128439, 128442, 128450, 128479, 128482, 128485, 128498, 128501
 128502, 128511, 128512, 128926, 128932, 128936, 128937, 128939, 128943, 128979, 128991, 128999, 129026, 129034, 129040, 129049
 129054, 129060, 129087, 129127, 129136, 129176, 129177, 129178, 130848, 131734, 150295, 150377
*Surface, type=ELEMENT, name=Surf-7
_Surf-7_S1, S1
_Surf-7_S2, S2
_Surf-7_S4, S4
_Surf-7_S3, S3
*Elset, elset=_Surf-8_S1, internal
 100322, 125853, 125854, 125858, 125872, 125882, 125894, 125895, 125896, 125897, 125914, 125919, 125921, 125939, 126026, 126043
 126045, 126046, 126048, 126049, 126050, 126060, 126062, 126069, 126071, 126074, 126075, 126145, 126149, 126168, 126235, 126287
 126417, 126420, 126422, 126443, 126626, 126633, 126658, 127424, 127780, 128008, 128019, 128025, 128026, 128032, 128040, 128048
 128056, 128085, 128319, 128329, 128427, 128492, 128493, 128522, 128527, 128534, 128535, 128542, 128547, 128564, 128566, 128568
 128571, 128575, 128577, 128579, 128580, 128582, 128586, 128588, 128590, 128591, 128664, 128669, 128677, 128691, 128692, 128787
 128792, 128793, 128794, 128795, 128797, 128798, 128799, 128800, 128805, 128807, 128809, 128813, 128814, 128815, 128817, 128819
 128820, 128824, 128826, 128827, 128829, 128831, 128833, 128836, 128838, 128846, 128848, 128851, 128854, 129217, 129218, 129222
 129223, 129225, 129227, 129228, 129230, 129231, 129232, 129234, 129236, 129238, 129250, 129254, 129258, 129259, 129262, 129263
 129270, 129271, 129272, 129274, 129275, 129276, 129326, 129330, 129332, 129333, 129335, 129337, 129338, 129340, 129387, 129389
 129391, 129398, 129402, 129404, 129408, 129412, 129418, 129422, 129426, 129428, 129431, 129432, 129433, 129434, 129437, 129441
 129444, 130766, 130767, 130770, 130771
*Elset, elset=_Surf-8_S2, internal
  96984,  97937, 100037, 100788, 101371, 101741, 101917, 120077, 120096, 120721, 121970, 122051, 122104, 124536, 125679, 125814
 125819, 125838, 125840, 125855, 125861, 125863, 125869, 125870, 125873, 125876, 125879, 125883, 125887, 125911, 125912, 125917
 125918, 125920, 126040, 126051, 126081, 126091, 126135, 126144, 126154, 126156, 126223, 126226, 126284, 126307, 126317, 126320
 126323, 126325, 126354, 126363, 126365, 126371, 126380, 126384, 126387, 126397, 126402, 126413, 126415, 126571, 126574, 126575
 126582, 126604, 126606, 126609, 126612, 126631, 126644, 126645, 126648, 126650, 126652, 126669, 126670, 127438, 127772, 128016
 128033, 128034, 128051, 128054, 128055, 128078, 128083, 128102, 128137, 128275, 128300, 128303, 128304, 128305, 128322, 128325
 128326, 128360, 128421, 128422, 128425, 128428, 128430, 128432, 128457, 128458, 128471, 128491, 128515, 128517, 128518, 128521
 128525, 128536, 128537, 128548, 128550, 128595, 128598, 128637, 128640, 128662, 128665, 128678, 128679, 128681, 128682, 128690
 128816, 128894, 128898, 128899, 128918, 128920, 128922, 128941, 128944, 128946, 128950, 128959, 129007, 129015, 129018, 129020
 129025, 129028, 129164, 129179, 129182, 129184, 129186, 129188, 129189, 129240, 129249, 129253, 129264, 129273, 129342, 129352
 129383, 129392, 129395, 129399, 130547, 130600, 130628, 130661, 130704, 130713, 130723, 131847, 131903, 131911, 131913, 134661
 134805, 134842, 135162, 135191, 135260, 135380, 135647, 135767, 135989, 136149, 136208, 136362, 136716, 137121, 137199, 137241
 137281, 137493, 137537, 137807, 137930, 138004, 138023, 138404, 138483, 138645, 139417, 139508, 139816, 140116, 140226, 140248
 140278, 140502, 140625, 140719, 141057, 141083, 141313, 141486, 141899, 141958, 142353, 142684, 143074, 143102, 143518, 143868
 144126, 144216, 144733, 144886, 145772, 146116, 146269, 146590, 147593, 147648, 148051, 148069, 148149, 148449, 148702, 149987
 150174,
*Elset, elset=_Surf-8_S3, internal
  96265,  96545, 100876, 120638, 120727, 121971, 122100, 124526, 125841, 125850, 125875, 125889, 125905, 125907, 125913, 126047
 126116, 126252, 126280, 126290, 126313, 126315, 126379, 126381, 126382, 126399, 126403, 126411, 126416, 126573, 126607, 126629
 126630, 126641, 126642, 126643, 126653, 126667, 127528, 127769, 128021, 128024, 128057, 128067, 128079, 128089, 128092, 128093
 128097, 128111, 128246, 128302, 128419, 128429, 128445, 128467, 128499, 128514, 128519, 128524, 128543, 128546, 128554, 128594
 128596, 128600, 128666, 128671, 128673, 128686, 128786, 128806, 128896, 128942, 129009, 129011, 129021, 129166, 129191, 129241
 129242, 129252, 129256, 129257, 129328, 129390, 129393, 129417, 129423, 129425, 130641, 130682, 130685, 130700, 130714, 130722
 131793, 131794, 134699, 134963, 135063, 135328, 135407, 135583, 135827, 135917, 136049, 136460, 136646, 136836, 136840, 137687
 138194, 138287, 138719, 139007, 139114, 139897, 140231, 140321, 140754, 141637, 142164, 142694, 143437, 143767, 144570, 144641
 144919, 145130, 145278, 145382, 145606, 145944, 146480, 146811, 146904, 147140, 147305, 147480, 147796, 147908, 147947, 148338
 148624,
*Elset, elset=_Surf-8_S4, internal
  97325,  97621, 100225, 101288, 120728, 122058, 122120, 124914, 125685, 125690, 125697, 125733, 125836, 125842, 125844, 125846
 125857, 125874, 125880, 125890, 125906, 125916, 126063, 126083, 126084, 126085, 126133, 126142, 126146, 126155, 126159, 126173
 126286, 126370, 126373, 126375, 126376, 126377, 126392, 126400, 126401, 126404, 126586, 126610, 126611, 126613, 126635, 126636
 126637, 126640, 126647, 126651, 126654, 126665, 126666, 128011, 128039, 128050, 128095, 128100, 128101, 128104, 128105, 128119
 128423, 128426, 128465, 128472, 128489, 128513, 128516, 128520, 128533, 128549, 128601, 128659, 128661, 128670, 128683, 128687
 128688, 128689, 128914, 128917, 128923, 128948, 128949, 128952, 128958, 128970, 129010, 129012, 129016, 129030, 129180, 129183
 129185, 129255, 129329, 129381, 129388, 129394, 129396, 129397, 129400, 129415, 131902, 131912, 148322, 148336, 148470, 148513
 148751, 148755, 148942, 148966, 149131, 149136, 149949, 149979, 150152, 150159, 150300, 150342
*Surface, type=ELEMENT, name=Surf-8
_Surf-8_S1, S1
_Surf-8_S2, S2
_Surf-8_S4, S4
_Surf-8_S3, S3
*Elset, elset=_Surf-9_S1, internal
 125948, 125952, 125954, 125978, 125981, 126027, 126077, 126197, 126342, 126344, 126701, 127455, 127810, 127813, 128074, 128557
 128608, 128676, 128717, 128719, 128723, 128724, 128725, 128726, 128728, 128732, 128743, 128758, 128769, 128770, 128772, 128774
 128777, 128780, 128790, 128791, 128841, 128862, 129265, 129286, 129287, 129373, 129445, 129447, 129455, 129456, 129458, 129464
 129466, 129468, 129470, 129472, 129475, 129478, 129479, 129481, 129484, 129487, 129489, 129491, 129493, 129495, 129497, 129500
 129502, 129504, 129508, 129510, 129511, 129514, 129518
*Elset, elset=_Surf-9_S2, internal
  95873,  96446,  96647,  97487, 101144, 101854, 120078, 120103, 120476, 120742, 120751, 120762, 121480, 125864, 125867, 125900
 125937, 125943, 125944, 125945, 125951, 125967, 125968, 125972, 125998, 126006, 126007, 126011, 126021, 126029, 126030, 126052
 126073, 126128, 126186, 126188, 126190, 126191, 126193, 126194, 126196, 126198, 126202, 126209, 126210, 126212, 126219, 126227
 126331, 126335, 126340, 126348, 126349, 126359, 126410, 126671, 126678, 126680, 126682, 126685, 126693, 126694, 126695, 126700
 126707, 126708, 126715, 126737, 126743, 126746, 126764, 126903, 126911, 126916, 127334, 127385, 127401, 127402, 127403, 127404
 127412, 127441, 127448, 127529, 127771, 127773, 127774, 127778, 127805, 127809, 127953, 127955, 127958, 127970, 128009, 128013
 128015, 128023, 128028, 128041, 128042, 128044, 128062, 128064, 128065, 128066, 128073, 128080, 128081, 128084, 128088, 128531
 128551, 128555, 128560, 128561, 128603, 128607, 128611, 128616, 128622, 128623, 128631, 128644, 128648, 128649, 128650, 128651
 128656, 128658, 128663, 128672, 128702, 128711, 128713, 128715, 128718, 128729, 128736, 128741, 128746, 128747, 128750, 128751
 128754, 128762, 128766, 128767, 128781, 128784, 128855, 129121, 129193, 129195, 129268, 129280, 129283, 129292, 129294, 129297
 129302, 129303, 129347, 129348, 129350, 129351, 129353, 129359, 129365, 129366, 129368, 129371, 129376, 129377, 129449, 129452
 129453, 129454, 129462, 129527, 129569, 129572, 129622, 129635, 129667, 129740, 129745, 129751, 129752, 129759, 129761, 129798
 129799, 130270, 130297, 130432, 130474, 130479, 130500, 130511, 130532, 130558, 130560, 134718, 134785, 134868, 134920, 135006
 135029, 135251, 135293, 135366, 135434, 135560, 135595, 135879, 136197, 136515, 136634, 136715, 136887, 136989, 137166, 137187
 137380, 137385, 137590, 137609, 137833, 138046, 138168, 138326, 138634, 138665, 138961, 139307, 139349, 140202, 140244, 140458
 140540, 140737, 140741, 140885, 140917, 140960, 141097, 141169, 141524, 141702, 141848, 142306, 142330, 142731, 143032, 144123
 144392, 144545, 144822, 145175, 145264, 145362, 145433, 145691, 145693, 145724, 145729, 145906, 146142, 146229, 146295, 146370
 146711, 146730, 146923, 147131, 147338, 147562, 147738, 148004, 148118, 150145, 150275
*Elset, elset=_Surf-9_S3, internal
  96839,  97301, 100332, 100609, 100873, 100887, 101410, 101613, 120106, 125926, 125928, 125940, 125975, 125991, 126018, 126042
 126175, 126177, 126178, 126199, 126215, 126330, 126338, 126346, 126351, 126356, 126675, 126684, 126696, 126698, 126703, 126706
 126713, 126739, 126744, 126889, 126910, 126917, 127330, 127333, 127397, 127439, 127440, 127526, 127732, 127783, 127792, 127796
 127817, 127819, 127982, 128010, 128045, 128061, 128071, 128532, 128540, 128562, 128563, 128605, 128615, 128621, 128627, 128629
 128630, 128633, 128646, 128655, 128696, 128701, 128722, 128733, 128740, 128744, 128745, 128749, 128753, 128756, 128761, 128763
 129194, 129200, 129266, 129284, 129299, 129315, 129358, 129364, 129450, 129451, 129457, 129459, 129460, 129461, 129463, 129465
 129555, 129568, 129747, 129750, 129795, 130298, 130437, 130440, 130444, 130518, 130559, 135099, 135144, 135779, 135957, 136135
 136309, 136436, 136931, 137802, 138407, 139060, 139622, 139823, 139928, 140878, 141617, 142880, 143147, 143419, 143450, 143797
 144113, 144159, 144913, 145311, 146753, 147585, 147607, 147912, 147966, 148225, 148282, 148483, 148549
*Elset, elset=_Surf-9_S4, internal
  99869, 100376, 102088, 120092, 122050, 122554, 125915, 125922, 125927, 125958, 125969, 125970, 125973, 125990, 125996, 126009
 126013, 126016, 126017, 126019, 126025, 126082, 126207, 126214, 126237, 126319, 126324, 126327, 126341, 126350, 126352, 126405
 126406, 126407, 126408, 126409, 126672, 126674, 126677, 126683, 126697, 126705, 126757, 126890, 126898, 127314, 127321, 127763
 127779, 127795, 127818, 127950, 128012, 128030, 128075, 128076, 128077, 128086, 128087, 128530, 128552, 128556, 128602, 128604
 128617, 128619, 128620, 128626, 128634, 128635, 128638, 128645, 128647, 128652, 128653, 128654, 128657, 128675, 128694, 128698
 128703, 128710, 128712, 128714, 128716, 128735, 128739, 128742, 128757, 128783, 129029, 129260, 129289, 129295, 129300, 129317
 129325, 129349, 129354, 129356, 129357, 129361, 129362, 129363, 129367, 129369, 129379, 129380, 129554, 129615, 129619, 129637
 129638, 129746, 129797, 130260, 130267, 130301, 130442, 130556, 130557, 130561, 130564, 131549, 131621, 131783, 131784, 131787
 131790, 131792, 144847, 145205, 145467, 145929, 145970, 146208, 146474, 146485, 146814, 147015, 147018, 147290, 147358, 147626
 147731, 147828, 147866, 148023, 148107, 148191, 148346, 148419, 148578, 148652, 148804, 148819, 148982, 149049, 149942, 149958
 150071, 150223, 150416
*Surface, type=ELEMENT, name=Surf-9
_Surf-9_S1, S1
_Surf-9_S2, S2
_Surf-9_S4, S4
_Surf-9_S3, S3
*Elset, elset=_Surf-10_S1, internal
  97186,  99672, 100362, 100743, 126759, 126762, 126928, 126930, 126931, 126933, 126934, 127259, 127267, 127274, 127281, 127284
 127286, 127290, 127291, 127301, 127430, 127431, 127432, 127434, 127469, 127509, 127510, 127512, 127768, 127833, 127843, 127856
 127858, 127862, 127864, 127878, 127881, 127886, 127887, 127916, 127919, 127920, 129574, 129673, 129685, 129686, 129691, 129696
 129700, 129701, 129702, 129704, 129707, 129708, 129710, 129712, 129714, 129727, 131595
*Elset, elset=_Surf-10_S2, internal
  95559,  96223,  96939, 120723, 120733, 120741, 120753, 120780, 125692, 125923, 125930, 125934, 125936, 125941, 125947, 126699
 126710, 126728, 126730, 126740, 126748, 126752, 126758, 126760, 126761, 126765, 126769, 126815, 126818, 126828, 126829, 126834
 126835, 126852, 126863, 126866, 126871, 126878, 126884, 126908, 126909, 126921, 126925, 126939, 126943, 126946, 127248, 127249
 127251, 127252, 127254, 127257, 127258, 127260, 127296, 127297, 127299, 127304, 127305, 127306, 127307, 127312, 127327, 127328
 127329, 127332, 127337, 127340, 127352, 127356, 127381, 127382, 127384, 127411, 127414, 127429, 127442, 127459, 127464, 127466
 127475, 127498, 127507, 127654, 127751, 127758, 127765, 127766, 127787, 127788, 127789, 127798, 127803, 127804, 127820, 127826
 127827, 127830, 127831, 127832, 127834, 127836, 127839, 127840, 127842, 127844, 127848, 127851, 127853, 127868, 127870, 127871
 127909, 127912, 127947, 127951, 127954, 127957, 127961, 127966, 127968, 127971, 127972, 127981, 127983, 127988, 127995, 129323
 129372, 129520, 129521, 129541, 129546, 129547, 129551, 129552, 129558, 129559, 129563, 129565, 129584, 129587, 129600, 129607
 129609, 129612, 129616, 129625, 129627, 129640, 129641, 129645, 129657, 129662, 129663, 129671, 129672, 129678, 129694, 129719
 129721, 129722, 129739, 129753, 129756, 129757, 129766, 129773, 129774, 129776, 129777, 129780, 129781, 129782, 129784, 129785
 129788, 129792, 129805, 129806, 129809, 129811, 129812, 129819, 129820, 130261, 130272, 130302, 131562, 131599, 134719, 134739
 134855, 134892, 134998, 135304, 135467, 135613, 135742, 135816, 135910, 135984, 136084, 136141, 136271, 136353, 136496, 136553
 136668, 136898, 136997, 137133, 137224, 137339, 137544, 138009, 138058, 138282, 138314, 138502, 138536, 138748, 139033, 139165
 139438, 139515, 139810, 139951, 140406, 140709, 140801, 141117, 141171, 141187, 141398, 141591, 141990, 142317, 142401, 142643
 142676, 142729, 142847, 143067, 143131, 143440, 143585, 143781, 143845, 144142, 144319, 144601, 144654, 144795, 144879, 145002
 145251, 145452, 145743, 145768, 145910, 145932, 146085, 146102, 146364, 146676, 146834, 147099, 147215, 147464, 147653, 147663
 147799, 147937, 147988, 148042, 148364, 148456, 148853
*Elset, elset=_Surf-10_S3, internal
  95811,  96612,  99934, 100527, 101098, 101336, 120090, 120761, 125955, 126200, 126718, 126733, 126747, 126753, 126770, 126814
 126816, 126819, 126822, 126827, 126831, 126837, 126838, 126840, 126858, 126859, 126883, 126886, 126891, 126894, 126915, 126920
 126926, 127114, 127184, 127298, 127300, 127309, 127311, 127315, 127326, 127331, 127336, 127341, 127343, 127348, 127358, 127364
 127379, 127380, 127386, 127389, 127394, 127396, 127400, 127415, 127417, 127421, 127423, 127425, 127428, 127443, 127453, 127454
 127456, 127476, 127644, 127756, 127761, 127775, 127776, 127784, 127786, 127790, 127791, 127799, 127800, 127823, 127854, 127874
 127911, 127952, 127960, 127965, 128005, 129528, 129531, 129533, 129539, 129540, 129550, 129561, 129585, 129611, 129614, 129626
 129631, 129636, 129644, 129652, 129658, 129717, 129724, 129733, 129735, 129738, 129760, 129767, 129770, 129775, 129778, 129787
 129794, 129802, 129810, 129825, 131594, 135039, 135139, 135148, 136753, 137786, 138779, 140152, 140962, 141405, 141654, 141683
 141914, 144213, 144586, 145010, 146220, 146946, 147279, 148169
*Elset, elset=_Surf-10_S4, internal
 101455, 101873, 101975, 102165, 120775, 121982, 125691, 126204, 126714, 126719, 126826, 126853, 126862, 126870, 126914, 126924
 126940, 126945, 126962, 127042, 127280, 127383, 127416, 127427, 127446, 127457, 127467, 127578, 127672, 127755, 127764, 127777
 127822, 127824, 127825, 127828, 127835, 127846, 127850, 127866, 127872, 127876, 127888, 127948, 127949, 127959, 127963, 127964
 127967, 127985, 127986, 127991, 127992, 127993, 127997, 128006, 129314, 129542, 129543, 129544, 129549, 129564, 129580, 129599
 129613, 129617, 129621, 129628, 129629, 129630, 129632, 129633, 129642, 129649, 129655, 129716, 129720, 129764, 129765, 129779
 129783, 129789, 129800, 129801, 129803, 129804, 129808, 129815, 129818, 129827, 130274, 131548, 131552, 141768, 142088, 142284
 142382, 142535, 142912, 143119, 143210, 143362, 143471, 143531, 143738, 143880, 144021, 144188, 144428, 144644, 144846, 145030
 145078, 145252, 145536, 145616, 145796, 145934, 146306, 146320, 146658, 146688, 146822, 146878, 147155, 147391, 147429, 147469
 147539, 147929, 148187, 148269, 148391, 148399, 148613, 148653, 148789, 149004, 149885, 150022, 150059, 150203, 150214, 150334
 150374,
*Surface, type=ELEMENT, name=Surf-10
_Surf-10_S1, S1
_Surf-10_S2, S2
_Surf-10_S4, S4
_Surf-10_S3, S3
*Elset, elset=_Surf-11_S1, internal
  73533,  95189,  95882,  96539, 101482, 101998, 126768, 126778, 126807, 126812, 126848, 126857, 126937, 126954, 126965, 126975
 126989, 126990, 127104, 127119, 127176, 127187, 127210, 127212, 127217, 127221, 127222, 127232, 127237, 127239, 127246, 127264
 127344, 127652, 127733, 127890, 127893, 127896, 127898, 127900, 127902, 127904, 127906, 127908, 127917, 127918, 129578, 129583
 129589, 129593, 129597, 129669, 129675, 129682, 129683, 129684, 129847, 129860, 129868, 129919, 129934, 129935, 129936, 129939
 129940, 129941, 130035, 130415, 130417
*Elset, elset=_Surf-11_S2, internal
  95856, 100008, 100068, 100309, 101030, 120098, 120104, 120731, 120744, 120755, 120766, 120771, 120774, 120777, 120779, 126205
 126726, 126776, 126808, 126810, 126841, 126854, 126856, 126861, 126869, 126961, 126963, 126964, 126969, 126977, 126992, 126997
 127001, 127003, 127041, 127047, 127052, 127053, 127056, 127071, 127105, 127109, 127115, 127116, 127171, 127173, 127175, 127192
 127193, 127194, 127198, 127205, 127207, 127208, 127235, 127236, 127269, 127277, 127354, 127372, 127461, 127463, 127471, 127479
 127480, 127481, 127494, 127495, 127505, 127548, 127550, 127553, 127558, 127559, 127561, 127562, 127569, 127572, 127584, 127587
 127591, 127597, 127609, 127625, 127633, 127634, 127646, 127647, 127667, 127671, 127673, 127675, 127686, 127703, 127715, 127716
 127717, 127722, 127724, 127735, 127743, 127748, 127750, 127752, 127760, 127894, 127895, 127921, 127927, 127929, 127994, 129529
 129576, 129577, 129591, 129592, 129668, 129674, 129680, 129681, 129822, 129838, 129841, 129842, 129843, 129844, 129849, 129856
 129858, 129864, 129866, 129867, 129907, 129918, 129920, 129937, 129944, 129945, 129949, 129979, 129990, 129991, 129993, 129994
 129995, 129997, 130004, 130005, 130009, 130011, 130012, 130014, 130015, 130017, 130034, 130042, 130048, 130052, 130056, 130059
 130060, 130071, 130106, 131566, 131587, 134726, 134814, 134976, 135117, 135252, 135297, 135423, 135440, 135588, 135634, 135792
 135935, 135946, 136110, 136155, 136268, 136358, 136546, 136559, 136774, 136988, 137393, 137426, 137645, 137657, 137860, 137892
 138087, 138352, 138375, 138571, 138575, 138830, 138853, 139200, 139303, 139576, 139593, 139962, 139973, 140979, 141071, 141476
 141698, 141830, 141924, 142144, 142272, 142656, 143057, 143157, 143399, 143406, 143466, 143500, 143948, 144022, 144052, 144526
 145070, 145126, 145299, 145641, 145807, 146197, 146256, 146612, 146862, 147319, 147438, 147597, 147832, 147993, 148195, 148585
*Elset, elset=_Surf-11_S3, internal
  96617, 120089, 120719, 120754, 120768, 120770, 120788, 126727, 126766, 126774, 126775, 126777, 126780, 126796, 126806, 126809
 126811, 126864, 126865, 126868, 126957, 126958, 126959, 126960, 126981, 126988, 126991, 126994, 126998, 127077, 127084, 127102
 127107, 127108, 127110, 127112, 127121, 127172, 127188, 127190, 127204, 127229, 127266, 127276, 127278, 127366, 127367, 127470
 127473, 127482, 127485, 127486, 127491, 127499, 127501, 127503, 127579, 127581, 127588, 127590, 127645, 127649, 127657, 127664
 127720, 127721, 127739, 127740, 127741, 127749, 128001, 129535, 129537, 129579, 129595, 129601, 129602, 129603, 129676, 129826
 129833, 129834, 129852, 129857, 129861, 129862, 129870, 129871, 129926, 129927, 129929, 129943, 129971, 130026, 130031, 130033
 130036, 130038, 130043, 130118, 135728, 137212, 138126, 140400, 140834, 141260, 141610, 141837, 141936, 142067, 142415, 142814
 143064, 143722, 144459, 144805, 145216, 145548, 145852, 146046, 146172, 146517, 147047, 147241, 147684
*Elset, elset=_Surf-11_S4, internal
  53655,  53988,  95089, 100218, 101001, 101323, 101683, 120105, 125933, 126731, 126732, 126771, 126772, 126793, 126797, 126843
 126850, 126855, 126949, 126952, 126987, 127002, 127004, 127037, 127039, 127040, 127045, 127046, 127049, 127113, 127120, 127180
 127191, 127227, 127247, 127325, 127359, 127589, 127592, 127650, 127656, 127660, 127674, 127708, 127719, 127723, 127725, 127737
 127738, 127744, 127865, 127913, 127914, 127926, 129538, 129588, 129590, 129598, 129604, 129606, 129677, 129679, 129845, 129850
 129909, 129921, 129928, 129931, 129946, 129950, 129952, 129983, 129996, 129998, 130007, 130013, 130016, 130018, 130019, 130021
 130032, 130054, 130055, 130058, 130061, 130121, 131563, 131586, 138896, 139045, 139180, 139390, 139459, 139669, 139832, 140059
 140163, 140296, 140646, 140769, 141216, 141323, 141402, 141532, 141664, 141665, 141814, 141971, 142051, 142139, 142219, 142249
 142503, 142519, 142555, 142584, 142609, 142933, 142947, 143326, 143726, 144014, 144155, 144348, 144374, 144450, 144664, 144836
 144935, 145347, 145584, 145600, 145608, 145971, 146316, 146548, 146567, 146857, 146870, 147037, 147092, 147116, 147194, 147371
 147649, 147790, 148055, 148100, 148211, 148414, 148441, 148671, 148829, 148865, 149891, 149899, 150032, 150072, 150120, 150286
 150304, 150356
*Surface, type=ELEMENT, name=Surf-11
_Surf-11_S1, S1
_Surf-11_S2, S2
_Surf-11_S4, S4
_Surf-11_S3, S3
*Elset, elset=_Surf-12_S1, internal
  54408,  55264,  69485,  85937, 115222, 120752, 120756, 126735, 126786, 126976, 127009, 127015, 127029, 127081, 127170, 127575
 127602, 127610, 127611, 127612, 127626, 127627, 127641, 127690, 127928, 127934, 127939, 127941, 129829, 129830, 129832, 129835
 129836, 129873, 129874, 129877, 129879, 129882, 129883, 129884, 129886, 129888, 129890, 129891, 129892, 129894, 129896, 129898
 129900, 129902, 129905, 129906, 129911, 129954, 129955, 129956, 129957, 129958, 129959, 129976, 130092
*Elset, elset=_Surf-12_S2, internal
  53374,  54241,  54824,  55170,  55506,  58429,  63523,  63814,  65824,  66707,  71630,  73744,  74401,  90519,  95492,  96639
  98093, 100046, 101560, 104939, 105021, 105396, 107459, 108319, 110357, 120093, 120747, 120759, 120773, 120790, 126791, 126801
 126803, 126804, 126996, 127005, 127008, 127010, 127022, 127026, 127028, 127063, 127088, 127089, 127090, 127096, 127097, 127101
 127131, 127136, 127143, 127149, 127154, 127158, 127159, 127164, 127532, 127533, 127534, 127536, 127545, 127574, 127620, 127632
 127635, 127682, 127684, 127685, 127687, 127688, 127697, 127699, 127700, 127940, 127942, 129872, 129948, 129969, 129977, 129981
 129987, 129988, 129989, 130030, 130051, 130063, 130064, 130069, 130080, 130082, 130083, 130096, 130102, 130103, 130104, 130105
 134792, 134888, 135158, 135319, 135415, 135997, 136028, 136230, 136711, 136948, 137025, 137181, 137372, 137646, 137903, 138049
 138334, 138608, 139146, 140032, 140424, 140433, 140620, 141074, 141391, 141393, 141856, 142002, 142064, 142214, 142239, 142554
 142607, 143213, 143272, 143971, 144148, 144326, 144653, 144875, 145351, 145757, 145832, 146139, 146331, 146786, 147063, 147402
 147701, 148160, 148572, 148593
*Elset, elset=_Surf-12_S3, internal
  54069,  55831,  56960,  58345,  63676,  63691,  65350,  66045,  67397,  68084,  69018,  69735,  70442,  71078,  75036,  89476
  91933,  95334,  95456, 100908, 100998, 102359, 107529, 107631, 113512, 118632, 120783, 126784, 126787, 126788, 126789, 126792
 126802, 126805, 126999, 127011, 127012, 127014, 127021, 127023, 127025, 127055, 127065, 127066, 127080, 127095, 127122, 127130
 127132, 127133, 127140, 127142, 127151, 127162, 127165, 127168, 127487, 127530, 127537, 127540, 127541, 127543, 127547, 127571
 127596, 127601, 127613, 127621, 127622, 127623, 127630, 127668, 127705, 127707, 127710, 127931, 127936, 127944, 129913, 129961
 129964, 129968, 129970, 129982, 129984, 129992, 130010, 130047, 130062, 130067, 130079, 130081, 130094, 131578, 135046, 135621
 135846, 137559, 138971, 142357, 143024, 143626, 145100, 145543, 145812, 146106, 146790, 147705, 149284, 150811, 151123
*Elset, elset=_Surf-12_S4, internal
  54843,  55330,  55833,  56845,  57370,  57918,  59279,  61069,  63526,  64709,  66380,  67763,  68465,  68943,  70866,  84752
  92381,  95331,  99504, 101878, 118626, 120091, 120730, 120757, 126800, 126974, 127006, 127013, 127017, 127018, 127024, 127027
 127060, 127072, 127075, 127091, 127093, 127100, 127124, 127134, 127147, 127152, 127153, 127169, 127531, 127535, 127539, 127546
 127614, 127628, 127629, 127704, 127711, 127713, 127933, 127937, 127943, 127945, 127946, 129965, 129974, 130039, 130046, 130049
 130050, 130068, 130098, 130108, 135563, 137472, 138445, 139368, 139410, 139616, 139833, 140195, 140373, 140870, 141024, 141571
 142107, 142203, 142476, 142816, 143153, 143545, 143667, 143894, 144334, 144493, 144842, 144992, 145005, 145094, 145396, 145656
 146062, 146238, 146458, 147030, 147339, 147627, 147918, 147984, 148122, 148218, 148332, 148610, 149850, 150047, 150165, 150278
 150444,
*Surface, type=ELEMENT, name=Surf-12
_Surf-12_S1, S1
_Surf-12_S2, S2
_Surf-12_S4, S4
_Surf-12_S3, S3
** Section: SteelSection
*Solid Section, elset=Set-All, material=Steel
,
*End Part
**  
**
** ASSEMBLY
**
*Assembly, name=Assembly
**  
*Instance, name=OWT-1, part=PART-1
*End Instance
**  
*End Assembly
** 
** MATERIALS
** 
*Material, name=Steel
*Density
7850.,
*Elastic
 2.1e+11, 0.3
** 
** BOUNDARY CONDITIONS
** 
** Name: BC-Pinned Type: Displacement/Rotation
*Boundary
OWT-1.Set-Mudline, 1, 1
OWT-1.Set-Mudline, 2, 2
OWT-1.Set-Mudline, 3, 3
** ----------------------------------------------------------------
** 
** STEP: Step-Load
** 
*Step, name=Step-Load, nlgeom=YES
*Static
1., 1., 1e-05, 1.
** 
** LOADS
** 
** Name: Load-RNA-Thrust   Type: Surface traction
*Dsload, op=NEW
OWT-1.Surf-2, TRVEC, 841371., 1., 0., 0.
** Name: Load-RNA-Weight   Type: Surface traction
*Dsload, op=NEW
OWT-1.Surf-2, TRVEC, -4.74356e+06, 0., 0., 1.
** Name: Load-SelfWeight   Type: Gravity
*Dload
, GRAV, 9.81, 0., 0., -1.
** Name: Load-Wave   Type: Surface traction
*Dsload, op=NEW
OWT-1.Surf-3, TRVEC, 6127.51, 1., 0., 0.
** Name: Load-Wind-Seg-4   Type: Surface traction
*Dsload, op=NEW
OWT-1.Surf-4, TRVEC, 21.1373, 1., 0., 0.
** Name: Load-Wind-Seg-5   Type: Surface traction
*Dsload, op=NEW
OWT-1.Surf-5, TRVEC, 24.963, 1., 0., 0.
** Name: Load-Wind-Seg-6   Type: Surface traction
*Dsload, op=NEW
OWT-1.Surf-6, TRVEC, 27.5143, 1., 0., 0.
** Name: Load-Wind-Seg-7   Type: Surface traction
*Dsload, op=NEW
OWT-1.Surf-7, TRVEC, 29.4811, 1., 0., 0.
** Name: Load-Wind-Seg-8   Type: Surface traction
*Dsload, op=NEW
OWT-1.Surf-8, TRVEC, 31.103, 1., 0., 0.
** Name: Load-Wind-Seg-9   Type: Surface traction
*Dsload, op=NEW
OWT-1.Surf-9, TRVEC, 32.4942, 1., 0., 0.
** Name: Load-Wind-Seg-10   Type: Surface traction
*Dsload, op=NEW
OWT-1.Surf-10, TRVEC, 33.7189, 1., 0., 0.
** Name: Load-Wind-Seg-11   Type: Surface traction
*Dsload, op=NEW
OWT-1.Surf-11, TRVEC, 34.817, 1., 0., 0.
** Name: Load-Wind-Seg-12   Type: Surface traction
*Dsload, op=NEW
OWT-1.Surf-12, TRVEC, 35.525, 1., 0., 0.
** 
** OUTPUT REQUESTS
** 
*Restart, write, frequency=0
** 
** FIELD OUTPUT: F-Output-1
** 
*Output, field, variable=PRESELECT
** 
** HISTORY OUTPUT: H-Output-1
** 
*Output, history, variable=PRESELECT
*End Step
