*Heading
** Job name: Job-2 Model name: OWT_monopile_gmsh
** Generated by: Abaqus/CAE 2022
*Preprint, echo=NO, model=NO, history=NO, contact=NO
**
** PARTS
**
*Part, name=PART-1
*Node
      1,   2.69000006,           0.,         -30.
      2,   2.69000006,           0.,           0.
      3,   1.88999999,           0.,          87.
      4,   1.95000005,           0.,          87.
      5,         2.75,           0.,           0.
      6,         2.75,           0.,         -30.
      7,  -2.69000006,           0.,         -30.
      8,  -2.69000006,           0.,           0.
      9,  -1.88999999,           0.,          87.
     10,  -1.95000005,           0.,          87.
     11,        -2.75,           0.,           0.
     12,        -2.75,           0.,         -30.
     13,   2.69000006,           0.,   -29.361702
     14,   2.69000006,           0.,  -28.7234039
     15,   2.69000006,           0.,  -28.0851059
     16,   2.69000006,           0.,  -27.4468079
     17,   2.69000006,           0.,  -26.8085098
     18,   2.69000006,           0.,  -26.1702137
     19,   2.69000006,           0.,  -25.5319157
     20,   2.69000006,           0.,  -24.8936176
** ... 50219 like lines cut
*Element, type=C3D4
 38544, 33565, 28971, 39209, 22467
 38545, 18773, 37087, 31435, 29065
 38546, 23235, 28060, 35994, 44521
 38547, 25420, 30408, 42903, 15475
 38548, 19875, 23448, 26179, 35747
 38549, 20955, 23031, 35053, 31167
 38550, 20082, 24355, 29508, 33300
 38551, 19484, 23231, 42959, 34910
 38552, 31554, 36764, 13100, 25793
 38553, 21911, 27620, 30364, 34885
 38554, 25203, 42699, 35348, 40864
 38555, 12062, 27855, 24873, 29250
 38556, 21577, 25221, 25068, 37730
 38557, 49348, 18251, 25606, 39172
 38558, 19405, 22874, 32586, 25232
 38559, 50233, 50014,  7529,  9099
 38560, 40077, 30158, 24489, 38715
 38561, 15080, 24294, 30233, 40713
 38562, 34168, 39255, 26977, 40500
 38563, 19186, 27935, 22683, 42985
** ... 241416 like lines cut
*Elset, elset=Set-All, generate
  38544,  279979,       1
*Nset, nset=Set-Mudline
     1,     6,     7,    12,   373,   374,   375,   376,   377,   378,   379,   380,   381,   382,   383,   384
   385,   386,   387,   388,   389,   390,   391,   392,   393,   394,   395,   396,   397,   398,   399,   400
   401,   402,   403,   404,   405,   406,   407,   408,   409,   410,   411,   412,   413,   414,   415,   416
   417,   418,   419,   420,   421,   422,   423,   424,   425,   426,   427,   428,   429,   430,   431,   432
   433,   434,   435,   436,   437,   438,   439,   440,   441,   442,   443,   444,   445,   446,   447,   448
   449,   450,   451,   452,   453,   454,   455,   456,   457,   458,   459,   460,   461,   462,   463,   464
   465,   466,   467,   468,   469,   470,   471,   472,   473,   474,   475,   476,   477,   478,   479,   480
   481,   482,   483,   484,   485,   486,   487,   488,   489,   490,   491,   492,   493,   494,   495,   496
   497,   498,   499,   500,   501,   502,   503,   504,   505,   506,   507,   508,   509,   510,   511,   512
   513,   514,   515,   516,   517,   518,   519,   520,   521,   522,   523,   524,   525,   526,   527,   528
   529,   530,   531,   532,   533,   534,   535,   536,   537,   538,   539,   540,   541,   542,   543,   544
   545,   546,   547,   548,   549,   550,   551,   552,   553,   554,   555,   556,   557,   558,   559,   560
   561,   562,   563,   564,   565,   566,   567,   568,   569,   570,   571,   572,   573,   574,   575,   576
   577,   578,   579,   580,   581,   582,   583,   584,   585,   586,   587,   588,   589,   590,   591,   592
   593,   594,   595,   596,   597,   598,   599,   600,   601,   602,   603,   604,   605,   606,   607,   608
   609,   610,   623,   624,   625,  1003,  1004,  1005,  1006,  1007,  1008,  1009,  1010,  1011,  1012,  1013
  1014,  1015,  1016,  1017,  1018,  1019,  1020,  1021,  1022,  1023,  1024,  1025,  1026,  1027,  1028,  1029
  1030,  1031,  1032,  1033,  1034,  1035,  1036,  1037,  1038,  1039,  1040,  1041,  1042,  1043,  1044,  1045
  1046,  1047,  1048,  1049,  1050,  1051,  1052,  1053,  1054,  1055,  1056,  1057,  1058,  1059,  1060,  1061
  1062,  1063,  1064,  1065,  1066,  1067,  1068,  1069,  1070,  1071,  1072,  1073,  1074,  1075,  1076,  1077
** ... 755 like lines cut
*Elset, elset=_Surf-1_S1, internal
  39906,  40992,  41001,  41218,  41694,  41755,  41999,  42210,  42213,  42324,  42385,  42858,  43992,  44113,  44428,  44684
  44776,  45014,  45069,  45152,  46917,  47143,  47217,  47690,  48226,  48273,  48511,  48861,  49210,  49353,  49522,  49878
  50082,  50388,  50716,  50832,  50856,  51042,  51056,  51475,  51701,  51896,  51956,  52049,  52288,  52298,  52380,  52472
  52512,  52599,  52624,  52629,  52867,  52899,  52904,  52923,  53097,  53155,  53173,  53461,  53572,  53575,  53708,  53837
  53891,  53989,  54037,  54073,  54257,  54615,  54725,  54733,  54790,  54809,  54818,  54904,  55097,  55357,  55408,  55565
  55771,  55836,  55904,  56150,  56223,  56255,  56653,  56929,  57200,  57364,  57365,  57389,  57428,  57461,  57481,  57506
  57533,  57593,  57671,  57757,  58764,  58853,  58871,  58952,  59100,  59264,  59271,  59499,  59562,  59923,  60062,  60434
  60605,  60632,  61253,  61368,  61462,  61635,  61662,  61727,  61786,  61928,  61945,  61974,  62122,  62252,  62455,  62630
  62931,  63131,  63268,  63329,  63456,  63551,  63727,  63920,  64171,  64320,  64483,  64584,  64643,  64644,  65130,  65209
  65364,  65421,  65558,  65737,  65906,  66081,  66463,  66602,  66656,  66836,  67089,  67135,  67180,  67282,  67645,  67758
  67943,  67956,  68009,  68013,  68045,  68129,  68259,  68317,  68421,  68577,  68645,  68727,  68769,  68924,  69063,  69075
  69136,  69254,  69367,  69435,  69481,  69621,  69680,  69775,  69778,  69924,  69943,  70030,  70057,  70081,  70112,  70163
  70172,  70178,  70187,  70328,  70409,  70431,  70477,  70700,  70740,  70852,  70943,  71240,  71280,  71283,  71333,  71355
  71455,  71576,  71615,  71687,  71853,  71854,  71990,  72010,  72078,  72232,  72359,  72388,  72467,  72515,  72545,  72600
  72606,  72709,  72716,  72728,  72777,  72793,  72800,  72964,  72980,  72990,  73096,  73245,  73249,  73390,  73430,  73431
  73432,  73482,  73540,  73552,  73584,  73609,  73770,  73911,  73920,  73973,  74007,  74048,  74098,  74224,  74377,  74381
  74543,  74580,  74707,  74794,  74892,  75030,  75091,  75167,  75195,  75339,  75375,  75592,  75723,  75775,  75799,  75845
  75869,  76072,  76207,  76228,  76296,  76305,  76321,  76359,  76376,  76413,  76487,  76542,  76555,  76584,  76626,  76678
  76834,  76955,  77110,  77202,  77327,  77366,  77382,  77496,  77547,  77578,  77636,  77685,  77787,  77910,  77926,  78008
  78162,  78163,  78433,  78464,  78479,  78567,  78717,  78869,  78971,  79073,  79155,  79266,  79351,  79522,  79597,  79642
** ... 449 like lines cut
*Elset, elset=_Surf-1_S2, internal
  51720,  51762,  51894,  51997,  52211,  52328,  52398,  52443,  52580,  52964,  53257,  53393,  54568,  55622,  60557,  65077
  65507,  66614,  67889,  67969,  68055,  68264,  68517,  69100,  69383,  69603,  69634,  69673,  70022,  70251,  70512,  70899
  71885,  72391,  73137,  73243,  73792,  73846,  74206,  74418,  74834,  74890,  75487,  75661,  75899,  75947,  76100,  76315
  76432,  77230,  77346,  77445,  77818,  77916,  78005,  78552,  78783,  79146,  79188,  79364,  79718,  80023,  80169,  80571
  87736,  90171,  92590,  92681,  93052,  93135,  93586,  93975,  94232,  94546,  94671,  94730,  94760,  94901,  94951,  95196
  95334,  95389,  95436,  95623,  95880,  95912,  96502,  96533,  96552,  96636,  96952,  97105,  97340,  97408,  97632,  97725
  97781,  97797,  97860,  97862,  97952,  98454,  99395,  99407,  99691,  99969,  99975, 100444, 100513, 100615, 101019, 101212
 101275, 101325, 101456, 101767, 101849, 101895, 101901, 102179, 102207, 102257, 102542, 102857, 103062, 103421, 103601, 103835
 103931, 104016, 104018, 104172, 104293, 104309, 104448, 104619, 104880, 105024, 105149, 105509, 105708, 105863, 106257, 106525
 106614, 106647, 106716, 106833, 106939, 107022, 107188, 107489, 107596, 107610, 108560, 109672, 114294, 117917, 119856, 120216
 120222, 121034, 123863, 126734, 127897, 130252, 134991, 136554, 137434, 138451, 141321, 142101, 143395, 143547, 148404, 151821
 155393, 156174, 156771, 157867, 161544, 162363, 162376, 163594, 164303, 164793, 165031, 165316, 167082, 168701, 169004, 172933
 173387, 174827, 176065, 176301, 176717, 178240, 178315, 178805, 180827, 183518, 184169, 184683, 185242, 187605, 188537, 189516
 191171, 194539, 194541, 197508, 197631, 200496, 205266, 207236, 207239, 209271, 209929, 210753, 212031, 213444, 214883, 218302
 218794, 219774, 219853, 221875, 222212, 223536, 224733, 224953, 226293, 226404, 226500, 226672, 230708, 230833, 232292, 233002
 233611, 233662, 233991, 236056, 239210, 239480, 240182, 240432, 241380, 243333, 245110, 245629, 246138, 246947, 247254, 248591
 250011, 251887, 251957, 252375, 252512, 253869, 254240, 254323, 254428, 255886, 256152, 258758, 260495, 261090, 261679, 262180
 263075, 264027, 268668, 269383, 271570, 276768, 279318
*Elset, elset=_Surf-1_S3, internal
  40570,  42100,  44319,  44645,  45019,  46142,  47596,  47864,  50516,  50828,  51426,  51800,  51858,  52038,  52109,  52180
  52233,  52261,  52788,  53306,  53532,  53750,  54534,  58260,  58357,  58651,  58875,  60453,  61595,  64419,  66159,  66498
  67736,  68174,  68433,  68802,  68879,  68980,  69330,  69583,  69751,  70286,  70309,  70667,  70757,  70953,  70981,  71009
  71101,  71207,  71306,  71307,  71392,  71457,  71537,  71700,  71893,  72045,  72236,  72279,  72423,  72442,  72501,  72595
  72690,  72884,  73060,  73357,  74307,  74460,  74494,  74527,  74711,  74875,  74953,  75148,  75708,  75735,  75865,  76006
  76181,  76322,  76591,  76705,  76727,  76741,  77133,  77303,  77385,  77655,  77964,  78240,  78246,  78319,  78408,  78436
  78449,  78495,  78727,  78873,  78884,  78957,  79110,  79327,  79340,  79722,  79879,  80115,  80200,  82446,  82760,  83580
  86407,  87345,  89043,  89172,  90552,  90922,  91381,  91755,  91973,  92161,  92298,  92426,  92427,  92499,  92506,  92738
  92851,  92872,  92971,  93015,  93110,  93164,  93364,  93826,  93832,  93924,  93950,  94041,  94098,  94255,  94575,  94618
  94716,  94856,  94950,  95077,  95181,  95186,  95337,  95390,  95407,  95630,  95680,  95728,  95739,  95928,  95993,  96274
  96583,  96761,  96767,  97005,  97034,  97410,  97474,  97574,  97706,  97935,  98076,  98159,  98217,  98289,  98410,  98565
  98593,  98685,  98728,  98761,  98814,  98821,  98827,  98985,  99007,  99204,  99325,  99337,  99356,  99991, 100085, 100162
 100237, 100531, 100730, 100796, 100842, 101044, 101180, 101536, 101698, 101712, 101840, 101859, 101871, 102008, 102014, 102091
 102123, 102251, 102663, 102814, 103109, 103142, 103399, 103547, 103647, 103674, 103741, 103756, 103822, 104067, 104231, 104405
 104555, 104745, 104799, 104832, 104843, 105039, 105084, 105091, 105160, 105258, 105358, 105457, 105513, 105629, 105768, 105883
 105893, 105915, 106020, 106281, 106410, 106492, 106524, 106571, 106592, 106615, 106761, 106787, 106789, 107066, 107131, 107150
 107214, 107440, 107466, 107468, 107636, 107645, 107672, 107740, 108227, 108283, 108469, 109632, 110685, 111853, 112518, 114752
 117054, 118540, 118907, 120151, 121219, 123366, 125034, 126958, 127176, 129490, 131305, 131497, 131683, 132341, 132549, 132664
 133393, 133551, 134493, 135080, 136424, 136441, 136939, 139648, 141061, 141215, 141254, 141464, 141717, 141810, 142850, 143192
 143212, 144636, 144947, 146466, 146469, 147279, 147584, 149245, 149364, 149520, 149646, 149972, 149979, 150721, 151468, 151857
** ... 19 like lines cut
*Elset, elset=_Surf-1_S4, internal
  40063,  40109,  40182,  42853,  44511,  44656,  45183,  46234,  46883,  47175,  47551,  47750,  48384,  48753,  49029,  50245
  50288,  50574,  50722,  51245,  52041,  52184,  52385,  52457,  52572,  52808,  53120,  53459,  54410,  54460,  58776,  58900
  59287,  60497,  61706,  62917,  63423,  64168,  64744,  66359,  67452,  67761,  67898,  68012,  68188,  68217,  68225,  68399
  68465,  68529,  68542,  68647,  68884,  69025,  69158,  69476,  69527,  69569,  69629,  69642,  70005,  70207,  70307,  70317
  70320,  70351,  70517,  70770,  71006,  71011,  71145,  71310,  71756,  71876,  71975,  72014,  72315,  72720,  73061,  73079
  73157,  73310,  73433,  73458,  73497,  73930,  74210,  74416,  74513,  74630,  74636,  74706,  74732,  75016,  75260,  75291
  75535,  75593,  75862,  76085,  76118,  76571,  76668,  76916,  76989,  77095,  77193,  77219,  77332,  77359,  77726,  77790
  77828,  78015,  78074,  78420,  78526,  78649,  78847,  78911,  79151,  79236,  79574,  79973,  80267,  80278,  80294,  80314
  80574,  80658,  80820,  81416,  81472,  81670,  82042,  82212,  82281,  82788,  82831,  83410,  83447,  83678,  84209,  84554
  85001,  87057,  87398,  87490,  87791,  88566,  88583,  88953,  90053,  90920,  91011,  91317,  91513,  92006,  92011,  92185
  92352,  92407,  92547,  92675,  93014,  93026,  93081,  93114,  93166,  93597,  93845,  94014,  94238,  94908,  94981,  95086
  95141,  95245,  95533,  95701,  96016,  96209,  96596,  96637,  96665,  96698,  96765,  96942,  96976,  97015,  97024,  97498
  97559,  97647,  97703,  97734,  97809,  97829,  98103,  98164,  98193,  98272,  98398,  98413,  98809,  98815,  98870,  98942
  99031,  99303,  99441,  99509,  99529,  99546,  99572,  99573,  99708,  99979, 100039, 100109, 100123, 100173, 100461, 100514
 100764, 101094, 101117, 101329, 101729, 101756, 102078, 102142, 102173, 102291, 102365, 102380, 102419, 102917, 102922, 102954
 103099, 103396, 103405, 103573, 103669, 103775, 103803, 104550, 104577, 104605, 104609, 104649, 104679, 104749, 104812, 104826
 104859, 105210, 105369, 105398, 105638, 105771, 105825, 105925, 105952, 105988, 105990, 106261, 106527, 106535, 106575, 106579
 106599, 106605, 106644, 106778, 106856, 106884, 106885, 107045, 107065, 107312, 107435, 107629, 108118, 108729, 108813, 109505
 109716, 109750, 109975, 110117, 110320, 110845, 111848, 111852, 111978, 112634, 113168, 113907, 113941, 114083, 114333, 114868
 115455, 115479, 115886, 116266, 116650, 116799, 116852, 116949, 117155, 117485, 117911, 118122, 118334, 118669, 119595, 119797
** ... 29 like lines cut
*Surface, type=ELEMENT, name=Surf-1
_Surf-1_S1, S1
_Surf-1_S2, S2
_Surf-1_S4, S4
_Surf-1_S3, S3
*Elset, elset=_Surf-2_S1, internal
  46475,  71415,  97331,  98794, 106550, 120654, 176161, 194048, 196852, 218045, 231264, 236712, 242272, 258943, 260969, 261184
 263434, 270859, 273512, 275318, 276323, 277630, 279868, 279882
*Elset, elset=_Surf-2_S3, internal
  80668, 113120, 130463
*Elset, elset=_Surf-2_S4, internal
  91809, 172947, 230845, 279761
*Surface, type=ELEMENT, name=Surf-2
_Surf-2_S1, S1
_Surf-2_S3, S3
_Surf-2_S4, S4
*Elset, elset=_Surf-3_S1, internal
  38799,  39337,  39340,  39785,  40585,  42885,  42964,  43430,  44151,  45042,  45473,  46289,  46404,  46510,  46909,  47079
  47131,  47521,  48847,  48921,  49169,  49215,  49295,  49395,  50307,  51436,  51822,  52373,  52497,  54193,  54240,  54431
  54701,  55062,  55106,  55468,  55731,  55752,  55812,  55848,  55899,  55970,  56600,  56906,  57059,  57243,  57886,  57928
  58085,  58170,  58171,  58220,  58303,  58360,  58366,  58813,  58943,  58949,  59072,  59123,  59267,  59538,  59676,  59767
  59873,  60205,  60657,  60702,  60844,  61132,  61238,  61286,  61414,  61423,  61450,  61530,  61688,  61842,  61964,  61994
  62379,  62607,  62691,  63115,  63128,  63419,  63601,  63896,  64006,  64259,  64307,  64356,  64759,  64959,  65125,  65227
  65320,  65334,  65501,  65570,  65676,  65922,  66039,  66103,  66442,  66834,  66906,  67140,  67310,  67649,  68109,  68394
  68405,  68583,  68869,  68989,  69442,  69518,  69525,  69646,  69668,  70208,  70303,  70664,  70670,  70719,  71224,  71504
  71634,  71881,  71974,  72182,  72280,  72337,  72446,  72587,  72701,  72759,  72822,  72840,  73234,  73328,  73351,  73368
  73441,  73587,  73796,  74003,  74116,  74180,  74251,  74600,  74682,  74690,  74718,  74782,  74983,  75294,  75451,  75639
  75677,  75748,  75840,  75918,  76411,  76479,  76505,  76515,  76808,  76833,  76856,  76937,  77211,  77384,  77529,  77811
  77989,  77992,  78596,  78637,  78661,  78735,  79015,  79431,  79609,  79853,  79871,  79914,  80255,  80262,  80310,  80651
  80671,  80954,  81143,  81568,  81705,  81776,  81841,  82285,  82690,  82803,  82827,  83042,  83258,  83264,  83416,  83484
  83690,  83716,  84372,  84643,  84696,  85241,  85271,  85319,  85324,  85453,  85469,  85905,  85907,  86257,  86280,  86320
  86397,  86654,  87029,  87133,  87242,  87455,  87609,  87629,  87664,  87927,  88036,  88252,  88300,  88372,  88527,  88587
  88610,  88615,  88669,  88675,  89170,  89171,  89332,  89499,  89508,  89515,  89958,  90102,  90190,  90353,  90515,  90825
  90863,  90976,  91154,  91218,  91632,  91659,  91697,  91784,  92064,  92083,  92145,  92302,  92443,  92930,  93045,  93084
  93100,  93130,  93207,  93250,  93590,  93937,  94581,  94647,  94660,  94828,  94852,  95025,  95208,  95244,  95372,  95392
  95473,  95527,  95570,  95637,  95778,  95780,  95872,  96172,  96186,  96219,  96285,  96300,  96428,  96464,  96501,  96653
  96720,  96863,  97144,  97203,  97279,  97308,  97473,  97516,  97885,  98557,  98560,  98572,  98582,  98622,  99387,  99470
** ... 411 like lines cut
*Elset, elset=_Surf-3_S2, internal
  39343,  39660,  40370,  40558,  40928,  45332,  45814,  47600,  48353,  48705,  49979,  50331,  51093,  51445,  51897,  51906
  54175,  54224,  54289,  54749,  54984,  54996,  55659,  55692,  57321,  57653,  57655,  58149,  58822,  58837,  59832,  60300
  61823,  62493,  63216,  65901,  66732,  66868,  71065,  71168,  72389,  74685,  80690,  80704,  82231,  83942,  84232,  84733
  96962, 101544, 101818, 102715, 104456, 107284, 108067, 108208, 108654, 109524, 109647, 109914, 112182, 112365, 112429, 112542
 112879, 114368, 116143, 118478, 119884, 121537, 122562, 122625, 122944, 123281, 124002, 125411, 126630, 127416, 127525, 127815
 127925, 128124, 128127, 128190, 129880, 130638, 130680, 130917, 131362, 131707, 132460, 133926, 135008, 135276, 135347, 135424
 135434, 136339, 136467, 136778, 136891, 138424, 138645, 139124, 139286, 139711, 140431, 141108, 141617, 142341, 143429, 143710
 144148, 144219, 145343, 145943, 147038, 147127, 148474, 148629, 149710, 149877, 149913, 150675, 151638, 151708, 151952, 152822
 153300, 154191, 155276, 156485, 157341, 157837, 161004, 162279, 163445, 164090, 164196, 164291, 164818, 165971, 166134, 166252
 168322, 169627, 173371, 173444, 173578, 173713, 173869, 173943, 174035, 174044, 174178, 175434, 176035, 176200, 176634, 177183
 177700, 178284, 178287, 178958, 179185, 179288, 179425, 179769, 179998, 180095, 180443, 182535, 183019, 183575, 188106, 188130
 189335, 189993, 191121, 191976, 192480, 192999, 194167, 196864, 197707, 198100, 198263, 199317, 199626, 200573, 200771, 201438
 202876, 203975, 205245, 205809, 206235, 206326, 206663, 207505, 207636, 208297, 210342, 211499, 211679, 211899, 212486, 213940
 214212, 214431, 214822, 215231, 215461, 215577, 215987, 216318, 216767, 216810, 217359, 219684, 223079, 223234, 223322, 223815
 224644, 224681, 224729, 225263, 225824, 226143, 226435, 226767, 227383, 229200, 229324, 230180, 232002, 232009, 232622, 232804
 232811, 233061, 233486, 236258, 237770, 237919, 238391, 238795, 238847, 239184, 240128, 241954, 242128, 243267, 243567, 243849
 243919, 243968, 244046, 244656, 244759, 245552, 246703, 247207, 247397, 247398, 247687, 247798, 248092, 248569, 249165, 249245
 249408, 250088, 250122, 250243, 251082, 251137, 251251, 251262, 251379, 251515, 251738, 251809, 252415, 252530, 252641, 252806
 252828, 252977, 253022, 253064, 253080, 253131, 253140, 253288, 253304, 253353, 253364, 253473, 253904, 253935, 254008, 254103
 254402, 254439, 254746, 254766, 255021, 255256, 255439, 255451, 255474, 255590, 255738, 255867, 255907, 256080, 256340, 256350
** ... 8 like lines cut
*Elset, elset=_Surf-3_S3, internal
  41828,  42842,  42903,  42966,  43803,  44122,  44625,  44969,  45049,  45140,  45400,  45461,  45489,  45549,  45698,  47229
  47486,  47934,  48827,  48900,  50278,  50311,  50322,  50556,  51969,  53362,  53409,  53739,  53998,  54414,  55001,  55306
  55457,  55966,  56110,  56188,  56890,  57045,  57893,  58024,  58140,  58195,  58251,  58568,  58989,  59197,  59825,  59871
  60281,  60347,  60535,  61053,  61404,  61830,  64155,  64417,  64795,  67314,  67706,  67715,  68088,  68873,  69105,  69333
  70869,  71381,  71655,  72597,  72923,  73253,  74337,  74923,  76734,  77629,  78126,  78840,  78990,  79016,  79896,  79999
  80437,  80778,  80986,  81005,  83533,  84095,  85252,  87974,  88069,  89317,  89754,  90284,  90766,  90796,  91029,  91171
  91797,  91835,  92489,  92907,  93313,  93330,  94697,  95385,  95412,  95478,  95937,  96070,  96194,  96331,  98426,  99190
  99508,  99772, 102574, 103223, 104989, 106616, 108183, 109101, 109201, 109369, 109371, 109385, 111275, 111639, 112627, 113159
 113456, 114622, 115117, 116090, 116822, 117628, 117637, 117669, 117948, 117964, 118163, 118355, 118356, 118695, 119168, 121030
 122153, 122366, 122510, 122523, 122743, 122889, 124657, 126014, 126235, 126338, 126848, 126908, 127920, 128035, 128200, 128210
 128295, 130040, 130045, 130200, 130961, 131616, 131681, 131955, 132057, 132101, 132158, 132606, 132643, 133141, 133295, 133563
 134120, 134320, 134561, 134618, 135542, 136350, 136572, 136593, 137686, 137858, 138178, 138814, 139188, 139428, 139558, 139692
 140701, 140742, 141101, 141776, 142128, 142823, 143115, 143713, 143764, 143889, 143990, 144318, 144515, 145325, 145377, 145386
 145427, 145626, 146391, 146504, 146658, 147205, 147893, 148187, 148387, 148959, 149754, 150388, 150750, 150757, 151165, 151413
 151485, 152274, 152387, 153153, 153203, 153537, 154068, 154234, 154301, 154311, 154695, 155081, 155772, 156593, 156595, 156867
 157245, 157557, 157645, 157798, 157976, 158436, 158981, 159040, 159090, 160087, 160108, 160692, 160791, 161283, 161326, 161974
 162015, 162141, 162264, 162337, 162496, 162741, 162853, 162891, 162949, 163253, 163596, 163598, 164661, 164809, 165284, 165308
 165407, 165501, 165702, 165872, 165967, 166035, 166423, 167184, 167213, 167337, 167366, 167832, 167975, 167999, 168612, 169345
 169453, 169698, 170095, 170290, 171612, 171640, 171670, 173031, 173058, 173197, 173898, 174100, 174230, 174244, 174784, 174967
 175053, 175426, 175548, 176387, 176585, 176719, 176781, 177002, 177020, 177065, 177116, 177162, 177454, 177546, 177820, 177891
** ... 27 like lines cut
*Elset, elset=_Surf-3_S4, internal
  40191,  41231,  43528,  43604,  43799,  44365,  44931,  45426,  45561,  46202,  46223,  46256,  46459,  47759,  48003,  48597
  48771,  49253,  49743,  49798,  50639,  50824,  51794,  52446,  52993,  53530,  53886,  53985,  54006,  54498,  54653,  54794
  54878,  55349,  55958,  56864,  57288,  57524,  57629,  57876,  58029,  58619,  58963,  59017,  59231,  59276,  59512,  59695
  60388,  60563,  62136,  62244,  63004,  63016,  63616,  64408,  64437,  64681,  64966,  65911,  66122,  66266,  67254,  67377
  68146,  68703,  69019,  69633,  71053,  71541,  71649,  73014,  73358,  73366,  73624,  74209,  74260,  74586,  75624,  75913
  76270,  76353,  77342,  77397,  78107,  78255,  78668,  79834,  80459,  80798,  80807,  80808,  82080,  82750,  83230,  83666
  83988,  84167,  84227,  84440,  85066,  85076,  85190,  85209,  85894,  86216,  86510,  86581,  86607,  87275,  87284,  87432
  87857,  88007,  88427,  88476,  89210,  89411,  89428,  89597,  89615,  89959,  90048,  90935,  91910,  92080,  92104,  92495
  93111,  93540,  93593,  93828,  93987,  94004,  94753,  95000,  95868,  96206,  96223,  96229,  96958,  97233,  97422,  97537
  97926,  98351,  98541,  98658,  98959,  98960, 100131, 100538, 101203, 102893, 103171, 103206, 103485, 103667, 104474, 104935
 104970, 105588, 105783, 105984, 106956, 108805, 109418, 109512, 109685, 110396, 110740, 111432, 111575, 111636, 112351, 112607
 112959, 112980, 113113, 113196, 113558, 113781, 114943, 114957, 115116, 115981, 116339, 116584, 116602, 117346, 117394, 117509
 117758, 117978, 118541, 118676, 118796, 118852, 118867, 118988, 119671, 120024, 120337, 121307, 121358, 121492, 121615, 122144
 122434, 122478, 122516, 122990, 123481, 123811, 125239, 125288, 125382, 125648, 126081, 126791, 126868, 127106, 127857, 127930
 127933, 128030, 128328, 128828, 129002, 129067, 129088, 129294, 129433, 129492, 129840, 129991, 130130, 130347, 130381, 130503
 130610, 130813, 131080, 131110, 131209, 131773, 132126, 132536, 132578, 132687, 132763, 133538, 133853, 134024, 134324, 134385
 134533, 134574, 134621, 134746, 134747, 134801, 135108, 135551, 136121, 136702, 136705, 136979, 137251, 137298, 137647, 138112
 138362, 139180, 139643, 139661, 139869, 140025, 140057, 140374, 140599, 140777, 140793, 140919, 140965, 141409, 141481, 142275
 142667, 143263, 143283, 143501, 143607, 143678, 144570, 144641, 144843, 145857, 145909, 145965, 147297, 147918, 148165, 148267
 148356, 148690, 148936, 149149, 149329, 149641, 149695, 149797, 150223, 150377, 150680, 151009, 151113, 152197, 152458, 152523
** ... 38 like lines cut
*Surface, type=ELEMENT, name=Surf-3
_Surf-3_S1, S1
_Surf-3_S2, S2
_Surf-3_S4, S4
_Surf-3_S3, S3
*Elset, elset=_Surf-4_S1, internal
  42223,  55534,  65724, 122967, 176060, 186450, 186770, 229190, 239592, 239925, 240253, 241190, 241195, 241608, 245467, 245979
 245999, 246026, 246279, 248967, 249366, 249506, 250176, 250292, 265406, 266424, 267942, 268026, 268096, 268151, 268381, 268505
 270969, 271422, 279733
*Elset, elset=_Surf-4_S2, internal
  40861,  42501,  42568,  55345,  57584,  59826,  60927,  61443,  61448,  64432,  84603,  84619,  84644,  84668,  87225, 103796
 123579, 125594, 126392, 142012, 146261, 186082, 186790, 189042, 189247, 189315, 208746, 233960, 239993, 240174, 240620, 240865
 240929, 241052, 241431, 241444, 246108, 247711, 248237, 248650, 248746, 249207, 249668, 250420, 250706, 250733, 252492, 256462
 264504, 264718, 264757, 264857, 264972, 265123, 265494, 268302, 271059, 271983, 274503, 275692, 276415, 277951
*Elset, elset=_Surf-4_S3, internal
  41561,  43673,  46987,  49446,  51917,  54449,  56309,  60029,  65603,  74073,  80242,  85960,  90389,  97389,  97545, 116625
 118242, 120763, 121160, 121711, 123446, 125736, 130979, 133286, 134257, 143413, 147137, 147160, 155349, 157184, 164232, 164745
 166746, 175122, 176685, 181796, 183461, 186546, 188286, 203806, 234371, 235341, 239936, 240179, 240219, 240229, 240584, 240604
 240712, 240937, 241389, 241405, 248218, 248728, 249218, 249244, 249463, 249651, 250559, 250627, 257816, 265270, 265493, 268286
 268544, 273776, 273807, 276050, 277004, 277399, 279149
*Elset, elset=_Surf-4_S4, internal
  40882,  46334,  51484,  51755,  62969,  63930,  65580,  81156,  81723,  93022, 100298, 108915, 112132, 112157, 113495, 120824
 125745, 128929, 130307, 130722, 144048, 144589, 152418, 156664, 157855, 159571, 159871, 161656, 163064, 164468, 168757, 171006
 175858, 182679, 184187, 184364, 184490, 186686, 186882, 209707, 232846, 234441, 239603, 239633, 239942, 240193, 240822, 240883
 240885, 240948, 241649, 245790, 245810, 246142, 246331, 247849, 248780, 248798, 249661, 250834, 254272, 261748, 264613, 264860
 264985, 265147, 265266, 265323, 266438, 268354, 270850, 274260, 277401, 277737
*Surface, type=ELEMENT, name=Surf-4
_Surf-4_S1, S1
_Surf-4_S2, S2
_Surf-4_S4, S4
_Surf-4_S3, S3
*Elset, elset=_Surf-5_S1, internal
  48517,  59464, 186461, 186530, 231229, 239177, 240389, 240430, 241662, 241939, 242239, 242254, 242290, 245778, 246627, 247263
 247333, 249818, 249847, 265449, 265504, 265518, 267424, 276646
*Elset, elset=_Surf-5_S2, internal
  38686,  48114,  51461,  57736,  59209,  63396,  69950,  81963,  90151,  98789, 102144, 112225, 113529, 115235, 115945, 120532
 135105, 136491, 138048, 142529, 149385, 156240, 177142, 187641, 193321, 239170, 241253, 241625, 241742, 241867, 241898, 241950
 243653, 245006, 245012, 245106, 245394, 245539, 245549, 246679, 247218, 247357, 247367, 247758, 248986, 249338, 264834, 265667
 266032, 267865, 268084, 274279, 276854, 278963, 279876
*Elset, elset=_Surf-5_S3, internal
  39634,  39689,  50492,  51285,  54237,  63324,  65658,  70502,  83215,  83336,  84789,  85842,  88572,  90897, 102630, 108958
 112101, 118447, 119509, 125846, 128808, 129658, 133144, 136011, 136172, 140219, 143854, 152735, 156845, 159553, 159842, 164364
 187078, 188597, 201804, 207864, 215722, 223589, 223840, 228278, 232110, 239768, 239812, 241449, 241576, 241762, 241921, 241994
 243523, 244834, 244920, 244949, 245577, 245735, 245752, 246684, 246742, 246818, 247341, 247782, 247891, 248014, 248024, 249851
 251537, 253750, 256688, 265813, 266265, 268060, 272480, 273820, 274301, 278423, 279762
*Elset, elset=_Surf-5_S4, internal
  44116,  57690,  59244,  59295,  65608,  66449,  77978,  83213,  86922,  88082,  88277,  88311,  88510,  89454,  90849,  96168
 103791, 112121, 114215, 114256, 119223, 120091, 120546, 121512, 127235, 128222, 128536, 130496, 131804, 134346, 142421, 145787
 145898, 145908, 149667, 150131, 155443, 163935, 167090, 168763, 170595, 170600, 183892, 186837, 186929, 209378, 213988, 218304
 238313, 239351, 239638, 239712, 239758, 239816, 241233, 241295, 241303, 241315, 242416, 243053, 243059, 243077, 243134, 244986
 245152, 245723, 245768, 247774, 256754, 261242, 264583, 264685, 265576, 267829, 274676, 279681
*Surface, type=ELEMENT, name=Surf-5
_Surf-5_S1, S1
_Surf-5_S2, S2
_Surf-5_S4, S4
_Surf-5_S3, S3
*Elset, elset=_Surf-6_S1, internal
  39380,  39546,  39662,  40192,  45138,  52908,  73793, 112241, 152342, 217302, 219265, 241528, 242046, 242780, 242814, 243481
 243642, 244179, 244482, 244699, 246581, 247956, 248259, 249719, 259797, 265590, 265698, 265818, 266839, 267099, 267119, 267230
 267338, 275933
*Elset, elset=_Surf-6_S2, internal
  40762,  44541,  50459,  56466,  59586,  84496,  88198, 108397, 109536, 123914, 142704, 160246, 188266, 188635, 190813, 215373
 229661, 231612, 233810, 234096, 234098, 236781, 239368, 239443, 239656, 242466, 242532, 242545, 242577, 242604, 242838, 243289
 243401, 243679, 243941, 244347, 244476, 244616, 244833, 244860, 246965, 251518, 257813, 266852, 267366, 273158, 279627
*Elset, elset=_Surf-6_S3, internal
  38734,  41820,  49136,  53294,  57226,  63309,  83839,  84157,  88404,  91639, 105870, 110532, 110551, 111110, 112350, 115995
 118827, 119634, 124196, 124774, 127310, 127967, 134874, 139076, 146149, 147550, 149750, 159406, 159449, 162160, 162287, 167758
 172253, 173640, 175692, 188236, 188497, 193908, 204111, 206426, 219792, 221999, 227911, 236949, 237132, 238432, 239466, 242481
 242565, 243163, 243285, 243353, 243587, 244012, 244244, 244509, 244532, 244669, 245084, 245818, 246447, 246614, 265905, 266295
 266926, 267040, 271245, 271499, 273570, 276391, 277228, 279359
*Elset, elset=_Surf-6_S4, internal
  38849,  38916,  39752,  41352,  44517,  45759,  53234,  57218,  58864,  59967,  62180,  88362,  94764,  97838, 104012, 107793
 117806, 117838, 127592, 129951, 130079, 133564, 137656, 142039, 145709, 148025, 149081, 151503, 155924, 156606, 160283, 161300
 178072, 181173, 188056, 188076, 188671, 189002, 194644, 210962, 226102, 231572, 233841, 234350, 234383, 236987, 237753, 238035
 239499, 242422, 242727, 242735, 242825, 242853, 243075, 243182, 243257, 243306, 244047, 245111, 245155, 250429, 266528, 266910
 267548, 267860, 269361, 279888
*Surface, type=ELEMENT, name=Surf-6
_Surf-6_S1, S1
_Surf-6_S2, S2
_Surf-6_S4, S4
_Surf-6_S3, S3
*Elset, elset=_Surf-7_S1, internal
  66398, 202977, 217509, 219167, 219186, 219611, 220379, 233323, 233398, 233527, 234518, 236825, 237344, 237498, 245919, 247084
 256290, 269273, 271829, 279533
*Elset, elset=_Surf-7_S2, internal
  61696,  85370, 129186, 129409, 150095, 150538, 161602, 203442, 207638, 217351, 219863, 220461, 230709, 230722, 231096, 231480
 231516, 231731, 231779, 231996, 233653, 233919, 234243, 234602, 234645, 237058, 237126, 237259, 237360, 237439, 237469, 237512
 262660, 265732, 266988, 267176, 274121, 276369, 278701
*Elset, elset=_Surf-7_S3, internal
  42334,  45557,  45771,  50784,  53260,  56541,  57994,  61876,  63929,  63948,  72908,  75753,  82154,  82542,  85432,  87890
 108986, 109572, 123831, 126830, 127658, 132410, 134529, 137116, 142498, 148009, 153025, 153141, 155532, 161987, 167497, 172151
 173918, 179970, 186364, 196288, 199104, 204262, 208154, 215600, 218808, 218935, 218997, 219079, 219364, 219708, 220046, 220049
 220421, 224782, 225439, 231479, 231564, 231602, 231641, 231844, 233549, 233986, 233997, 234295, 234711, 234887, 235230, 236984
 237038, 238899, 244823, 257532, 265815, 267222, 273962, 274394, 279660
*Elset, elset=_Surf-7_S4, internal
  39292,  44270,  46304,  61867,  64645,  69758,  73195,  73824,  79411,  79451,  81530,  82539,  83054,  83705,  87860,  92480
  95901,  96618, 100419, 101132, 115741, 116845, 117411, 118055, 119392, 122353, 125258, 126352, 128493, 131443, 135051, 136758
 141483, 143819, 148087, 148231, 148615, 157316, 158024, 158392, 159084, 160740, 162936, 163498, 166964, 187073, 188117, 199195
 203022, 203179, 203443, 217326, 218835, 218892, 218962, 219801, 219864, 219927, 220410, 231500, 231510, 231650, 231771, 231804
 231827, 233625, 233896, 233974, 234049, 234140, 234277, 234684, 234838, 235019, 235154, 236902, 237214, 238001, 247085, 249008
 252506, 266270, 272959, 274674, 279820
*Surface, type=ELEMENT, name=Surf-7
_Surf-7_S1, S1
_Surf-7_S2, S2
_Surf-7_S4, S4
_Surf-7_S3, S3
*Elset, elset=_Surf-8_S1, internal
  39281,  56068,  57264, 104524, 182935, 217133, 217759, 217826, 217835, 217860, 217863, 217873, 217996, 218007, 218591, 218639
 218656, 219953, 221008, 232101, 232917, 238208, 240131, 244770, 247049, 259997, 272426, 274808, 278857
*Elset, elset=_Surf-8_S2, internal
  39666,  39693,  39859,  40697,  42644,  50025,  53389,  58746,  69931,  81318,  82739,  90170,  95388, 115524, 129316, 134283
 141123, 155999, 176400, 209993, 216426, 217818, 219375, 220005, 220292, 220399, 230957, 231094, 231835, 232631, 232649, 232728
 233056, 233149, 234995, 235123, 235187, 235434, 235538, 235548, 235566, 248172, 255293, 257613, 262938, 262951, 273670, 273786
 277750,
*Elset, elset=_Surf-8_S3, internal
  38787,  39446,  40864,  54147,  56702,  56715,  60135,  67056,  79951,  81326,  91888,  93102,  98288, 105704, 109981, 110827
 112040, 120979, 123691, 126186, 127063, 130623, 132237, 138269, 140615, 157110, 157560, 161658, 162754, 167510, 168016, 172785
 200211, 201673, 201845, 203648, 205354, 210108, 216314, 217470, 219428, 219458, 220250, 231001, 232122, 232161, 232621, 232630
 232723, 233087, 234763, 235114, 235270, 235474, 235650, 238193, 239138, 249944, 263889, 266985, 277741, 278132, 278910
*Elset, elset=_Surf-8_S4, internal
  42434,  43051,  43099,  50019,  53254,  55509,  55772,  56819,  57787,  60164,  71814,  82713,  83239, 106454, 108297, 114020
 115868, 115907, 118565, 118701, 119386, 133667, 141685, 142745, 148321, 150480, 156357, 156515, 159603, 163548, 175984, 180016
 183237, 190235, 201651, 202124, 203451, 206998, 215180, 216215, 216326, 217375, 217502, 217954, 219366, 220238, 221098, 221161
 230830, 230867, 231022, 233076, 233271, 233651, 235758, 238551, 238778, 238986, 245229, 246484, 252381, 252471, 254441, 271262
*Surface, type=ELEMENT, name=Surf-8
_Surf-8_S1, S1
_Surf-8_S2, S2
_Surf-8_S4, S4
_Surf-8_S3, S3
*Elset, elset=_Surf-9_S1, internal
  45791,  52912,  72207, 117065, 143487, 155840, 170230, 201468, 218150, 218184, 218196, 218281, 218402, 218445, 220932, 220953
 223627, 223641, 223763, 224886, 228303, 228441, 229993, 235781, 236191, 238131, 238448, 243639, 246517, 252298, 254969, 261441
 266261,
*Elset, elset=_Surf-9_S2, internal
  40867,  62167,  63006,  66100,  85403,  89492,  91034, 110662, 126445, 140756, 157081, 201243, 207189, 216042, 217503, 219211
 220551, 220887, 230567, 232272, 232309, 232321, 232370, 232603, 232989, 233204, 233250, 233882, 236125, 236435, 236496, 236595
 236678, 236814, 238123, 238216, 246930, 247033, 247179, 252334, 272392, 279397
*Elset, elset=_Surf-9_S3, internal
  38785,  42020,  50144,  50615,  62186,  66405,  71993,  87641,  88616,  89141,  90665, 108866, 111167, 117338, 119171, 122692
 123251, 127467, 135491, 136922, 137463, 146530, 147678, 154938, 154994, 158551, 171240, 173513, 191889, 201169, 216088, 218201
 218252, 220595, 220755, 221866, 223742, 228807, 230029, 232339, 233016, 234637, 236092, 236341, 236666, 238362, 238438, 238456
 238846, 238893, 239614, 247223, 251413, 257977, 275488, 278892, 278943, 279312, 279925
*Elset, elset=_Surf-9_S4, internal
  44037,  44454,  50143,  50614,  53296,  79772,  87637,  88604,  89126,  89489,  91025,  95716, 111499, 111514, 112069, 117281
 117573, 120030, 120269, 121807, 122097, 124316, 130048, 132117, 132847, 143565, 144831, 149318, 158178, 158376, 176684, 195862
 197601, 199704, 208713, 210651, 218198, 218226, 218297, 220582, 220916, 220929, 220975, 224606, 224968, 229092, 229971, 230228
 232268, 232390, 232467, 232470, 232954, 233218, 235687, 235889, 236009, 236746, 236758, 238173, 238271, 244741, 272938, 277365
 278974, 279366
*Surface, type=ELEMENT, name=Surf-9
_Surf-9_S1, S1
_Surf-9_S2, S2
_Surf-9_S4, S4
_Surf-9_S3, S3
*Elset, elset=_Surf-10_S1, internal
  39124,  69205,  80853, 122814, 222303, 223300, 224430, 224452, 224490, 226065, 227045, 227380, 227430, 227508, 227587, 227842
 227891, 228113, 228176, 228188, 228236, 228479, 228507, 228514, 228687, 229308, 229335, 230090, 230169, 276587
*Elset, elset=_Surf-10_S2, internal
  40412,  41201,  51407,  67349,  67580,  82056,  85438, 109988, 110665, 111580, 111586, 115156, 122281, 138238, 139743, 177306
 183130, 196518, 204701, 221303, 222274, 223661, 224256, 224278, 224602, 225023, 227472, 228857, 229169, 230300, 230533, 238360
 238388, 238510, 244300, 269484, 271157, 274141, 276255, 278678, 278866, 279548
*Elset, elset=_Surf-10_S3, internal
  38762,  59495,  68035,  71583,  77879,  82390,  86956,  91312,  91418,  91459, 111615, 111897, 112973, 113998, 114312, 114521
 118265, 120465, 120511, 120819, 126233, 131552, 133879, 133923, 137282, 144001, 147816, 154546, 155493, 155767, 162190, 165041
 165582, 179183, 192407, 204106, 204110, 207537, 221231, 222063, 223881, 223908, 223913, 223934, 223938, 224972, 225057, 228242
 228657, 228832, 228889, 238420, 255104, 257006, 274013, 277793
*Elset, elset=_Surf-10_S4, internal
  41439,  42039,  47608,  49205,  58420,  59487,  63786,  63848,  63972,  67305,  67603,  67684,  71363,  90777,  91288,  91289
  91439, 111599, 111843, 111952, 112767, 114878, 120977, 121485, 122286, 123235, 123299, 126560, 132153, 132320, 136548, 137965
 138859, 140160, 146405, 149803, 157543, 158445, 162093, 204020, 204047, 204484, 207614, 221340, 221405, 222185, 222328, 222390
 223499, 223658, 223885, 224000, 224429, 224817, 224936, 226080, 228012, 228793, 228964, 229180, 238836, 243435, 251021, 252318
 260937, 264867, 269889, 275859
*Surface, type=ELEMENT, name=Surf-10
_Surf-10_S1, S1
_Surf-10_S2, S2
_Surf-10_S4, S4
_Surf-10_S3, S3
*Elset, elset=_Surf-11_S1, internal
  39072,  39089, 108807, 131182, 207624, 207680, 217933, 221644, 221670, 221798, 221894, 222710, 225817, 225896, 226544, 226670
 227046, 227557, 227581, 228164, 229521, 244397, 253073, 255301, 258209, 265122, 279585
*Elset, elset=_Surf-11_S2, internal
  41947,  42577,  43679,  47110,  52795,  59141,  70608,  85354, 109561, 110226, 116092, 119234, 123503, 124520, 129070, 129246
 131925, 137503, 142890, 153849, 172181, 177164, 180093, 180512, 206813, 207991, 208316, 208470, 216434, 221589, 221831, 221883
 222760, 222768, 222936, 223026, 223205, 224002, 224073, 225955, 226501, 226704, 227199, 227989, 228119, 229475, 229542, 229615
 230489, 230534, 259225, 261271, 266950, 273746
*Elset, elset=_Surf-11_S3, internal
  40169,  52823,  61898,  67041,  86847,  88247,  91432,  97351, 104173, 111525, 113874, 117935, 121426, 126729, 134803, 137136
 138265, 141213, 142637, 143588, 151685, 161257, 166326, 170822, 175258, 181005, 194742, 206831, 208380, 213429, 221565, 221922
 222225, 222410, 224058, 224060, 225072, 226041, 226516, 226864, 227953, 229858, 230107, 241059, 252662, 254378, 261969, 279351
*Elset, elset=_Surf-11_S4, internal
  41417,  44346,  47066,  49265,  52541,  61963,  64279,  65109,  67026,  85316,  85331,  91356, 103202, 110723, 111742, 111748
 116303, 124118, 128690, 130758, 133544, 135142, 138347, 141911, 143663, 143848, 146514, 149658, 150482, 152077, 154749, 160778
 163835, 203804, 203853, 209920, 222170, 222766, 223245, 226491, 226511, 227102, 227131, 228120, 230092, 244944, 253012, 268304
 279688,
*Surface, type=ELEMENT, name=Surf-11
_Surf-11_S1, S1
_Surf-11_S2, S2
_Surf-11_S4, S4
_Surf-11_S3, S3
*Elset, elset=_Surf-12_S1, internal
  42084,  69756,  80889,  95965, 145312, 207560, 221612, 222793, 222829, 223143, 225202, 225461, 225665, 226116, 226334, 226351
 226402, 229698, 233203, 241407, 251199, 253779, 265068, 265285, 267539, 273795, 274599, 274871, 275255, 279226, 279760
*Elset, elset=_Surf-12_S2, internal
  38913,  41234,  41809,  51053,  60211,  80643,  88119,  99710, 104420, 107851, 119918, 135658, 143945, 149692, 153943, 174665
 207826, 207865, 209861, 211512, 222460, 222781, 222962, 225687, 229382, 229538, 229720, 262886, 274256, 277131, 278588
*Elset, elset=_Surf-12_S3, internal
  39235,  40703,  41876,  51024,  71596,  72199,  74905,  80251,  81703,  86570,  87332,  97431, 106499, 107298, 121573, 123373
 125527, 125635, 129212, 132199, 136282, 141823, 147604, 154052, 157068, 162547, 198861, 207725, 207772, 207831, 221976, 222650
 225185, 225361, 225668, 225678, 225726, 226925, 252150, 262186, 267425, 276875, 278462, 279133
*Elset, elset=_Surf-12_S4, internal
  40818,  45676,  45681,  47004,  50052,  50086,  68423,  69859,  74227,  87935,  88150,  88911,  95202, 106520, 107254, 107949
 108822, 111712, 124942, 128781, 131807, 137530, 143909, 148525, 185002, 203257, 212116, 222638, 223112, 223168, 223169, 225673
 227024, 229645, 229681, 229732, 235216, 236670, 250335, 253216
*Surface, type=ELEMENT, name=Surf-12
_Surf-12_S1, S1
_Surf-12_S2, S2
_Surf-12_S4, S4
_Surf-12_S3, S3
*Elset, elset=_Surf-13_S1, internal
  40055,  49546,  62950,  73353,  74698,  77033,  77733,  82267,  87186,  88274,  88984,  89370,  90409,  90493,  90667,  91222
  91788,  92586,  94959,  95246,  96047,  97678,  97962,  98987, 100408, 100447, 100738, 101034, 101283, 102297, 102510, 103060
 103147, 105311, 105360, 108662, 108709, 109402, 110280, 110748, 111578, 111955, 112165, 113932, 119037, 121151, 121660, 122028
 123020, 125519, 126029, 126144, 126670, 126687, 126855, 126929, 128109, 129371, 129876, 130262, 131156, 133320, 134250, 134567
 134996, 135388, 135771, 136943, 137990, 140149, 141187, 141849, 143452, 143776, 144156, 144362, 144613, 144968, 145071, 146385
 146570, 146818, 148077, 149072, 149492, 149902, 150672, 151226, 152526, 153423, 154781, 155725, 156080, 156458, 157908, 158535
 159036, 159915, 160140, 160173, 160855, 161136, 161439, 161717, 161915, 162339, 163155, 163370, 164847, 165393, 165492, 165518
 166571, 167237, 168309, 170114, 170391, 171044, 171400, 172165, 172259, 172291, 173239, 173552, 174562, 174835, 176457, 176530
 178606, 181539, 182439, 182716, 184441, 185511, 185870, 185895, 186554, 187493, 187958, 188007, 188090, 190186, 190234, 190242
 190453, 190573, 190716, 191318, 191440, 192161, 193738, 194339, 195394, 196738, 197375, 198666, 199841, 199898, 200284, 200549
 201809, 202326, 203330, 203335, 204003, 204243, 205057, 205746, 205939, 206007, 206958, 207299, 208784, 208816, 208832, 209384
 210182, 210241, 211681, 212034, 212700, 212873, 214648, 215263, 217143, 217884, 218492, 219006, 219345, 221123, 222116, 222273
 222798, 223008, 224064, 224502, 225597, 226863, 226879, 227126, 228311, 228539, 228700, 228972, 228995, 229583, 230551, 230714
 232159, 232490, 233264, 233905, 234146, 234432, 235437, 236233, 236512, 238061, 238411, 238777, 239782, 240709, 244713, 244763
 247315, 248077, 248828, 249371, 249461, 251533, 253455, 254945, 255225, 256274, 256862, 258010, 260055, 260449, 261344, 261375
 262693, 263926, 264448, 264697, 266896, 269742, 271026, 273353, 278006
*Elset, elset=_Surf-13_S2, internal
  74620,  81171,  82070, 100737, 101400, 115404, 118630, 120406, 121069, 122029, 122090, 122173, 122217, 122477, 125560, 142743
 150046, 150956, 155321, 155756, 156287, 157416, 161279, 164641, 169288, 174637, 179708, 179794, 181176, 181351, 187210, 189909
 191166, 195096, 195141, 196222, 196277, 213387, 218552, 218777, 226831, 226859, 227649, 228686, 236488, 236968, 269407, 277364
 279978,
*Elset, elset=_Surf-13_S3, internal
  83916, 109214, 114989, 115194, 117667, 118641, 120195, 120450, 121075, 122147, 123218, 128573, 217551, 264666
*Elset, elset=_Surf-13_S4, internal
  45108,  45955,  47444,  48696,  49271,  54742,  61921,  66174,  66627,  96197, 109122, 109132, 109344, 113576, 113597, 115241
 115247, 115699, 115701, 116558, 117057, 117229, 117653, 117956, 118661, 119356, 119768, 120439, 121062, 121223, 121728, 121889
 122057, 122721, 123050, 123208, 125160, 125163, 127354, 127696, 127700, 134133, 154266, 160065, 171405, 181613, 192396, 210816
 213792, 217496, 224401, 264651
*Surface, type=ELEMENT, name=Surf-13
_Surf-13_S1, S1
_Surf-13_S2, S2
_Surf-13_S4, S4
_Surf-13_S3, S3
*Elset, elset=_Surf-14_S1, internal
  39116,  40235,  42076,  48935,  50980,  52522,  53013,  53125,  53609,  53793,  53823,  55078,  55156,  55660,  56209,  57871
  58416,  59783,  61076,  62194,  62383,  65183,  69210,  69212,  70128,  70630,  71334,  71579,  72051,  72112,  73023,  73262
  73322,  73346,  73555,  73583,  73738,  73745,  74044,  74060,  75416,  75417,  76317,  76977,  77503,  77669,  77983,  78049
  78584,  79100,  79396,  79436,  79509,  79777,  79787,  80066,  80181,  80785,  80790,  82681,  83046,  85522,  87689,  88073
  89129,  89165,  89739,  89888,  90482,  91068,  91451,  92188,  92346,  93118,  93563,  93578,  93729,  93754,  93812,  94051
  94821,  95297,  95551,  95600,  96270,  96388,  96579,  96777,  97888,  98261,  98271,  98294,  98324,  98779,  99613,  99619
  99839,  99852,  99855,  99885, 100029, 100348, 100555, 101021, 101540, 101601, 101618, 102042, 102062, 102572, 102838, 103112
 103177, 103411, 104176, 105251, 105266, 105576, 106685, 106686, 106796, 107140, 107457, 107794, 108548, 108997, 109611, 110018
 110370, 110679, 110774, 110816, 110976, 111064, 111617, 111821, 111922, 112192, 112259, 112381, 112861, 113118, 113973, 114191
 114714, 115534, 115623, 115879, 116301, 116521, 116706, 117526, 118845, 119876, 120201, 120360, 120449, 121014, 121661, 121865
 123231, 123736, 124170, 124493, 124682, 125301, 126845, 127172, 127221, 127596, 127748, 129026, 129774, 129836, 130591, 132680
 132789, 134172, 134928, 135806, 136017, 136055, 137133, 137186, 138134, 138284, 138409, 138455, 138851, 138936, 140268, 140787
 140863, 142780, 142940, 143369, 143471, 144015, 144341, 145167, 146067, 146468, 146669, 146853, 146891, 147507, 148168, 148491
 148762, 149285, 149854, 149867, 150094, 150488, 151886, 151889, 152962, 154009, 154108, 155904, 156349, 157200, 157312, 157466
 157556, 157599, 158003, 158311, 158573, 158631, 158723, 158886, 159376, 159422, 159480, 160044, 160768, 161928, 163009, 163102
 163268, 163300, 163372, 163490, 164735, 165009, 165732, 166077, 167727, 168441, 168478, 168506, 168808, 168985, 169015, 169042
 169134, 169270, 169357, 169931, 170159, 170208, 170433, 170877, 171645, 172331, 172398, 172518, 173971, 174066, 174426, 174714
 175593, 176100, 176493, 176722, 177496, 177721, 178435, 178454, 179313, 179390, 179442, 179963, 180197, 180649, 180682, 181085
 181206, 181409, 181438, 181535, 181673, 182152, 182158, 182361, 182553, 182701, 182765, 182951, 183627, 183994, 184232, 184638
 184719, 184749, 185248, 185814, 186711, 186873, 186905, 187024, 187155, 187841, 187852, 189682, 189806, 189837, 190398, 190417
** ... 33 like lines cut
*Elset, elset=_Surf-14_S2, internal
  50006,  50601,  68272,  70588,  74245,  74322,  90283,  90400,  91295,  91468,  91514,  91901,  92096,  94369,  94419,  96122
  98301, 102415, 105312, 105321, 105458, 105624, 116162, 116461, 118269, 120564, 140226, 141702, 143638, 152020, 156141, 161389
 162582, 165432, 169551, 171507, 171579, 175289, 175621, 183496, 183941, 184121, 185738, 195084, 195966, 203424, 205171, 211523
 212143, 213346, 215792, 217570, 218614, 219534, 219773, 219783, 224243, 234170, 234569, 236173, 243126, 248328, 250042, 252549
 253351, 256565, 256896, 267350
*Elset, elset=_Surf-14_S3, internal
  52635,  52663,  60454,  62798,  67556,  67569,  69052,  72757,  78064,  79087,  80445,  82660,  85958,  89789,  91890,  92351
  93508,  93691,  96234,  96366,  96799,  97456,  97738,  97745,  99474, 100319, 102421, 103168, 103184, 104465, 104774, 105355
 105572, 109211, 109413, 112579, 112609, 114356, 115159, 117269, 119290, 119486, 120025, 121361, 122462, 124903, 127636, 127652
 131907, 138190, 139069, 148412, 152550, 152819, 158614, 160629, 162614, 174618, 175240, 182495, 184450, 188898, 191627, 194582
 207798, 218665, 219793, 228637, 232203, 233188, 235179, 241493, 247749, 248724, 252573, 253683, 257484, 257996, 258700, 260674
 263502, 266890, 267921, 268208, 271324, 273506, 276537, 276834
*Elset, elset=_Surf-14_S4, internal
  41333,  53513,  56099,  56991,  61318,  63625,  64300,  65160,  65667,  66487,  66939,  67078,  68310,  69968,  74065,  74248
  75448,  78056,  79118,  79512,  80064,  80781,  85356,  91909,  92102,  92301,  93703,  95663,  96260,  96365,  96378,  96809
  97755,  98344, 102534, 104793, 106436, 106883, 107829, 108034, 109399, 112329, 112382, 115115, 116731, 118537, 119979, 120012
 121281, 121282, 121609, 121887, 122511, 122984, 123348, 124104, 124133, 124712, 124905, 127155, 127161, 127672, 127768, 128450
 128559, 128563, 128619, 128620, 128634, 129671, 130121, 130151, 131105, 131451, 138188, 138444, 140447, 140503, 140578, 142857
 145006, 151856, 156718, 157158, 160941, 161232, 164248, 168785, 169560, 173859, 174251, 181986, 185421, 186401, 188483, 190205
 191183, 197920, 198602, 202266, 203240, 210073, 215524, 216619, 225231, 226731, 231388, 234241, 236226, 236536, 236974, 238096
 239589, 243437, 243572, 243633, 245699, 245877, 245878, 250748, 251845, 252206, 252701, 254204, 262928
*Surface, type=ELEMENT, name=Surf-14
_Surf-14_S1, S1
_Surf-14_S2, S2
_Surf-14_S4, S4
_Surf-14_S3, S3
** Section: SteelSection
*Solid Section, elset=Set-All, material=Steel
,
*End Part
**  
**
** ASSEMBLY
**
*Assembly, name=Assembly
**  
*Instance, name=OWT-1, part=PART-1
*End Instance
**  
*End Assembly
** 
** MATERIALS
** 
*Material, name=Steel
*Density
7850.,
*Elastic
 2.1e+11, 0.3
** 
** BOUNDARY CONDITIONS
** 
** Name: BC-Pinned Type: Displacement/Rotation
*Boundary
OWT-1.Set-Mudline, 1, 1
OWT-1.Set-Mudline, 2, 2
OWT-1.Set-Mudline, 3, 3
** ----------------------------------------------------------------
** 
** STEP: Step-Load
** 
*Step, name=Step-Load, nlgeom=YES
*Static
1., 1., 1e-05, 1.
** 
** LOADS
** 
** Name: Load-RNA-Thrust   Type: Surface traction
*Dsload, op=NEW
OWT-1.Surf-2, TRVEC, 841371., 1., 0., 0.
** Name: Load-RNA-Weight   Type: Surface traction
*Dsload, op=NEW
OWT-1.Surf-2, TRVEC, -4.74356e+06, 0., 0., 1.
** Name: Load-SelfWeight   Type: Gravity
*Dload
, GRAV, 9.81, 0., 0., -1.
** Name: Load-Wave   Type: Surface traction
*Dsload, op=NEW
OWT-1.Surf-3, TRVEC, 6127.51, 1., 0., 0.
** Name: Load-Wind-Seg-4   Type: Surface traction
*Dsload, op=NEW
OWT-1.Surf-4, TRVEC, 21.1373, 1., 0., 0.
** Name: Load-Wind-Seg-5   Type: Surface traction
*Dsload, op=NEW
OWT-1.Surf-5, TRVEC, 24.963, 1., 0., 0.
** Name: Load-Wind-Seg-6   Type: Surface traction
*Dsload, op=NEW
OWT-1.Surf-6, TRVEC, 27.5143, 1., 0., 0.
** Name: Load-Wind-Seg-7   Type: Surface traction
*Dsload, op=NEW
OWT-1.Surf-7, TRVEC, 29.4811, 1., 0., 0.
** Name: Load-Wind-Seg-8   Type: Surface traction
*Dsload, op=NEW
OWT-1.Surf-8, TRVEC, 31.103, 1., 0., 0.
** Name: Load-Wind-Seg-9   Type: Surface traction
*Dsload, op=NEW
OWT-1.Surf-9, TRVEC, 32.4942, 1., 0., 0.
** Name: Load-Wind-Seg-10   Type: Surface traction
*Dsload, op=NEW
OWT-1.Surf-10, TRVEC, 33.7189, 1., 0., 0.
** Name: Load-Wind-Seg-11   Type: Surface traction
*Dsload, op=NEW
OWT-1.Surf-11, TRVEC, 34.817, 1., 0., 0.
** Name: Load-Wind-Seg-12   Type: Surface traction
*Dsload, op=NEW
OWT-1.Surf-12, TRVEC, 35.525, 1., 0., 0.
** 
** OUTPUT REQUESTS
** 
*Restart, write, frequency=0
** 
** FIELD OUTPUT: F-Output-1
** 
*Output, field, variable=PRESELECT
** 
** HISTORY OUTPUT: H-Output-1
** 
*Output, history, variable=PRESELECT
*End Step
