*Heading
** Job name: Job-2 Model name: OWT_monopile_gmsh
** Generated by: Abaqus/CAE 2022
*Preprint, echo=NO, model=NO, history=NO, contact=NO
**
** PARTS
**
*Part, name=PART-1
*Node
      1,   2.69000006,           0.,         -30.
      2,   2.69000006,           0.,           0.
      3,   1.88999999,           0.,          87.
      4,   1.95000005,           0.,          87.
      5,         2.75,           0.,           0.
      6,         2.75,           0.,         -30.
      7,   2.69000006,           0.,   -29.361702
      8,   2.69000006,           0.,  -28.7234039
      9,   2.69000006,           0.,  -28.0851059
     10,   2.69000006,           0.,  -27.4468079
     11,   2.69000006,           0.,  -26.8085098
     12,   2.69000006,           0.,  -26.1702137
     13,   2.69000006,           0.,  -25.5319157
     14,   2.69000006,           0.,  -24.8936176
     15,   2.69000006,           0.,  -24.2553196
     16,   2.69000006,           0.,  -23.6170216
     17,   2.69000006,           0.,  -22.9787235
     18,   2.69000006,           0.,  -22.3404255
     19,   2.69000006,           0.,  -21.7021275
     20,   2.69000006,           0.,  -21.0638294
** ... 27818 like lines cut
*Element, type=C3D4
 40595,  8568,  5763,  5830,  5583
 40596, 19437, 22780, 21636, 23431
 40597, 20784, 22637, 25253, 26329
 40598, 20000, 22603, 13030, 25526
 40599, 10090,  5632,  5633,  5634
 40600, 10842,  7117, 10292,  8017
 40601, 20307, 22006, 18598, 26379
 40602,  5574,  5573, 10372,  5572
 40603, 15523, 25282, 20664, 26033
 40604,  5487,  8244,  5326,  5403
 40605, 15790, 23556, 24435, 25273
 40606,    20,    21,  1955, 13744
 40607, 21064, 21591, 20701, 25217
 40608, 19585, 21798, 20612, 22229
 40609,  8835,  7201,  5602,  6550
 40610, 14438, 20945, 20546, 21941
 40611, 21723, 24151, 19322, 26618
 40612, 20988, 21549, 15221, 21858
 40613, 13030, 22603, 20000, 23943
 40614, 17066, 22379, 21874, 26099
** ... 108048 like lines cut
*Elset, elset=Set-All, generate
  40595,  148662,       1
*Nset, nset=Set-Mudline
     1,     6,   367,   368,   369,   370,   371,   372,   373,   374,   375,   376,   377,   378,   379,   380
   381,   382,   383,   384,   385,   386,   387,   388,   389,   390,   391,   392,   393,   394,   395,   396
   397,   398,   399,   400,   401,   402,   403,   404,   405,   406,   407,   408,   409,   410,   411,   412
   413,   414,   415,   416,   417,   418,   419,   420,   421,   422,   423,   424,   425,   426,   427,   428
   429,   430,   431,   432,   433,   434,   435,   436,   437,   438,   439,   440,   441,   442,   443,   444
   445,   446,   447,   448,   449,   450,   451,   452,   453,   454,   455,   456,   457,   458,   459,   460
   461,   462,   463,   464,   465,   466,   467,   468,   469,   470,   471,   472,   473,   474,   475,   476
   477,   478,   479,   480,   481,   482,   483,   484,   485,   486,   487,   488,   489,   490,   491,   492
   493,   494,   495,   496,   497,   498,   499,   500,   501,   502,   503,   504,   505,   506,   507,   508
   509,   510,   511,   512,   513,   514,   515,   516,   517,   518,   519,   520,   521,   522,   523,   524
   525,   526,   527,   528,   529,   530,   531,   532,   533,   534,   535,   536,   537,   538,   539,   540
   541,   542,   543,   544,   545,   546,   547,   548,   549,   550,   551,   552,   553,   554,   555,   556
   557,   558,   559,   560,   561,   562,   563,   564,   565,   566,   567,   568,   569,   570,   571,   572
   573,   574,   575,   576,   577,   578,   579,   580,   581,   582,   583,   584,   585,   586,   587,   588
   589,   590,   591,   592,   593,   594,   595,   596,   597,   598,   599,   600,   601,   602,   603,   604
   605,   606,   607,   608,   609,   610,   611,   612,   613,   614,   615,   616,   617,   618,   619,   620
   621,   622,   623,   624,   625,   626,   627,   628,   629,   630,   631,   632,   633,   634,   635,   636
   637,   638,   639,   640,   641,   642,   643,   644,   645,   646,   647,   648,   649,   650,   651,   652
   653,   654,   655,   656,   657,   658,   659,   660,   661,   662,   663,   664,   665,   666,   667,   668
   669,   670,   671,   672,   673,   674,   675,   676,   677,   678,   679,   680,   681,   682,   683,   684
** ... 605 like lines cut
*Elset, elset=_Surf-1_S1, internal
  41038,  41392,  41466,  41526,  41540,  41610,  41616,  41649,  41691,  41720,  41824,  41923,  41979,  41993,  42068,  42134
  42170,  42192,  42202,  42203,  42302,  42335,  42350,  42358,  42365,  42410,  42495,  42648,  42671,  42809,  42845,  42883
  43089,  43091,  43095,  43107,  43131,  43143,  43164,  43190,  43200,  43261,  43385,  43397,  43432,  43497,  43507,  43516
  43597,  43629,  43630,  43667,  43686,  43732,  43757,  43761,  43835,  43894,  43912,  43916,  43919,  43991,  44005,  44042
  44045,  44047,  44120,  44122,  44136,  44212,  44231,  44248,  44271,  44297,  44306,  44324,  44350,  44411,  44417,  44457
  44476,  44514,  44529,  44559,  44574,  44591,  44604,  44608,  44610,  44637,  44655,  44715,  44773,  44781,  44832,  44858
  44907,  45033,  45041,  45063,  45099,  45110,  45198,  45215,  45286,  45287,  45315,  45321,  45371,  45383,  45437,  45490
  45516,  45594,  45621,  45630,  45644,  45681,  45689,  45692,  45701,  45703,  45718,  45721,  45746,  45754,  45756,  45812
  45816,  45846,  45867,  45901,  45925,  45926,  46053,  46057,  46092,  46140,  46158,  46162,  46215,  46220,  46251,  46305
  46310,  46330,  46332,  46389,  46496,  46502,  46504,  46545,  46615,  46642,  46647,  46708,  46729,  46731,  46739,  46763
  46811,  46825,  46826,  46830,  46847,  46851,  46861,  46886,  46906,  46941,  46959,  46963,  47026,  47103,  47116,  47155
  47163,  47174,  47179,  47197,  47202,  47203,  47236,  47286,  47302,  47305,  47320,  47334,  47339,  47341,  47374,  47386
  47399,  47440,  47467,  47484,  47488,  47537,  47549,  47560,  47571,  47572,  47575,  47594,  47620,  47629,  47632,  47661
  47702,  47710,  47718,  47721,  47751,  47769,  47813,  47816,  47830,  47922,  47947,  47990,  47993,  48121,  48133,  48149
  48165,  48223,  48268,  48279,  48286,  48316,  48317,  48332,  48367,  48414,  48446,  48455,  48512,  48520,  48541,  48548
  48563,  48571,  48587,  48596,  48623,  48636,  48671,  48712,  48756,  48757,  48851,  48855,  48897,  48902,  48917,  48954
  48967,  48984,  49003,  49010,  49032,  49054,  49067,  49070,  49076,  49083,  49089,  49122,  49150,  49159,  49171,  49179
  49222,  49263,  49291,  49311,  49361,  49365,  49375,  49378,  49439,  49444,  49465,  49520,  49534,  49542,  49591,  49604
  49605,  49671,  49672,  49684,  49734,  49744,  49754,  49819,  49848,  49868,  49929,  49960,  49977,  49978,  49982,  49988
  49993,  49998,  50008,  50033,  50042,  50076,  50135,  50140,  50160,  50349,  50358,  50371,  50440,  50451,  50467,  50472
** ... 650 like lines cut
*Elset, elset=_Surf-1_S2, internal
  70546,  71271,  71762,  72639,  72951,  75237,  75326,  76335,  79167,  79223,  80527,  80845,  81601,  81639,  81731,  81767
  82376,  83000,  83289,  83357,  83570,  83687,  83745,  83813,  84082,  84169,  84273,  84342,  84372,  84610,  84630,  84978
  85039,  85154,  85269,  85629,  85638,  85890,  85909,  85914,  85936,  86747,  86773,  86821,  86843,  87300,  87308,  87344
  87485,  87860,  88073,  88138,  88241,  88364,  88434,  88698,  89090,  89162,  89218,  90274,  90451,  90521,  90914,  91118
  91262,  91390,  91395,  91466,  91570,  91770,  91864,  91987,  92010,  92039,  92428,  92815,  92861,  93259,  93288,  93346
  93429,  93482,  93561,  94133,  94278,  94283,  94472,  94528,  94557,  94631,  94678,  94888,  94889,  94908,  94965,  95003
  95169,  95192,  95230,  95273,  95314,  95343,  95411,  95413,  95463,  95469,  95552,  95559,  95565,  95593,  95636,  95674
  95680,  95754,  95784,  95793,  95831,  95851,  95871,  95911,  95915,  95956,  95962,  96018,  96035,  96038,  96054,  96056
  96057,  96147,  96148,  96234,  96260,  96275,  96291,  96324,  96338,  96345,  96350,  96362,  96381,  96386,  96433,  96468
  96489,  96506,  96593,  96609,  96619,  96622,  96670,  96728,  96746,  96790,  96831,  96878,  96887,  96890,  96896,  96958
  96981,  96982,  97012,  97035,  97061,  97073,  97077,  97086,  97143,  97189,  97203,  97215,  97221,  97229,  97259,  97283
  97291,  97294,  97298,  97321,  97328,  97330,  97425,  97430,  97447,  97468,  97519,  97609,  97631,  97717,  97749,  97764
  97830,  97831,  97852,  97871,  97875,  97992,  97998,  98042,  98058,  98078,  98079,  98151,  98176,  98257,  98460,  98481
  98697,  98720,  98758,  98829,  98981,  99031,  99260,  99487,  99498,  99658,  99746,  99789,  99808,  99997, 100250, 100482
 100532, 100880, 101101, 101167, 101322, 101674, 101775, 102406, 102673, 103677, 103907, 104868, 105079, 105960, 106216, 106457
 106695, 106820, 106994, 107068, 107370, 107386, 107515, 107583, 107867, 107985, 108720, 108873, 108990, 109033, 109157, 109321
 109482, 109773, 109788, 109877, 109925, 110014, 110298, 110402, 110445, 110581, 110636, 110753, 110900, 110905, 110996, 111039
 111328, 111509, 111580, 111727, 112243, 112276, 112516, 112713, 112873, 112992, 113116, 113120, 113192, 113203, 113455, 113710
 114153, 114284, 114482, 114636, 114683, 114708, 114788, 114824, 114887, 114912, 115274, 115313, 115394, 116116, 116644, 116650
 117393, 117502, 117716, 118773, 128580, 128796, 129764, 130012, 130034, 130728, 130959, 132375, 132747, 134652, 135949, 136121
** ... 4 like lines cut
*Elset, elset=_Surf-1_S3, internal
  54712,  70645,  72543,  73428,  74110,  74887,  75783,  76129,  76785,  76902,  77835,  78555,  78708,  79096,  79231,  79352
  79687,  79709,  80365,  80522,  81214,  81558,  81728,  82304,  82386,  82849,  83036,  83338,  83373,  83377,  83415,  83595
  83703,  83777,  84442,  84514,  84648,  84942,  85288,  85310,  85386,  85452,  85489,  85504,  85667,  85838,  85876,  86321
  86421,  86450,  86563,  86564,  86734,  86970,  86991,  87115,  87167,  87188,  87260,  87310,  87319,  87377,  87680,  87706
  87804,  87807,  87883,  87955,  88120,  88189,  88209,  88331,  88379,  88547,  88570,  88745,  89041,  89186,  89291,  89307
  89517,  89680,  89819,  89827,  89838,  90062,  90118,  90210,  90485,  90490,  90555,  90769,  90790,  90907,  90953,  91022
  91069,  91087,  91187,  91225,  91244,  91270,  91644,  91652,  91851,  91891,  92458,  92996,  93090,  93113,  93135,  93323
  93510,  93559,  93784,  93965,  94067,  94090,  94154,  94220,  94268,  94271,  94272,  94275,  94300,  94368,  94381,  94399
  94409,  94416,  94494,  94498,  94541,  94652,  94679,  94682,  94752,  94769,  94777,  94901,  94905,  94936,  94942,  94954
  94957,  95021,  95039,  95134,  95200,  95219,  95287,  95328,  95455,  95506,  95514,  95611,  95616,  95663,  95666,  95686
  95692,  95703,  95705,  95738,  95775,  95834,  95909,  95926,  95933,  95938,  95964,  95965,  95967,  95974,  95983,  95987
  95990,  96055,  96058,  96074,  96156,  96202,  96265,  96318,  96356,  96387,  96400,  96431,  96449,  96463,  96496,  96504
  96510,  96533,  96539,  96545,  96556,  96579,  96582,  96607,  96612,  96628,  96646,  96673,  96682,  96685,  96690,  96693
  96701,  96720,  96744,  96765,  96769,  96828,  96837,  96847,  96852,  96894,  96895,  96900,  96916,  96946,  96959,  96968
  96972,  96992,  97023,  97032,  97033,  97059,  97062,  97095,  97096,  97107,  97112,  97121,  97131,  97133,  97144,  97176
  97198,  97220,  97243,  97256,  97264,  97272,  97286,  97289,  97304,  97317,  97343,  97383,  97424,  97433,  97435,  97471
  97478,  97479,  97484,  97529,  97537,  97570,  97572,  97575,  97616,  97623,  97707,  97733,  97777,  97850,  97872,  97887
  97898,  97936,  97979,  98019,  98093,  98124,  98147,  98168,  98202,  98238,  98250,  98358,  98361,  98391,  98393,  98430
  98436,  98445,  98470,  98474,  98598,  98672,  98682,  98712,  98716,  98740,  98795,  98804,  98867,  98893,  99190,  99247
  99272,  99288,  99296,  99307,  99342,  99398,  99460,  99554,  99560,  99832, 100025, 100127, 100266, 100584, 100864, 100922
** ... 25 like lines cut
*Elset, elset=_Surf-1_S4, internal
  70579,  71546,  72651,  72790,  72833,  73610,  74716,  74768,  74777,  75090,  75572,  77814,  78590,  78789,  78816,  79684
  79735,  79890,  80212,  80673,  81040,  81219,  81340,  81485,  81596,  81690,  81781,  81802,  81884,  82007,  82237,  82389
  82579,  82960,  83139,  83162,  83226,  83259,  83336,  83526,  83547,  83619,  83704,  83918,  84079,  84383,  84996,  85024
  85127,  85304,  85356,  85458,  85477,  85793,  85794,  85848,  85849,  85912,  85933,  86083,  86126,  86309,  86355,  86378
  86384,  86629,  86707,  87225,  87350,  87473,  87583,  87665,  87714,  87789,  88274,  88302,  88544,  88571,  88808,  88955
  89053,  89167,  89231,  89579,  89677,  89690,  89692,  89761,  89825,  90311,  90352,  90498,  90756,  90921,  91177,  91197
  91359,  91507,  91519,  91581,  91583,  91876,  92112,  92172,  92327,  92579,  92652,  92836,  93044,  93221,  93513,  93664
  93876,  93887,  94149,  94246,  94254,  94259,  94280,  94289,  94320,  94441,  94506,  94515,  94653,  94669,  94700,  94753
  94799,  94812,  94831,  94977,  95031,  95229,  95258,  95277,  95278,  95447,  95594,  95713,  95748,  95764,  95799,  95830
  96361,  96388,  96632,  96741,  96757,  96784,  96935,  97002,  97630,  97632,  97903,  98129,  98308,  98701,  98801, 100126
 100155, 100316, 100499, 102267, 103593, 103658, 104329, 104390, 104855, 105232, 105544, 105665, 105709, 105811, 105914, 106355
 106408, 106790, 106857, 107539, 107551, 107701, 107785, 107815, 108463, 108616, 108946, 109012, 109190, 109237, 109616, 109914
 110061, 110075, 110081, 110139, 110199, 110224, 110284, 110594, 110641, 110725, 110758, 110785, 110830, 111011, 111248, 111402
 111688, 111702, 111803, 111807, 111809, 111885, 112385, 112468, 112599, 112734, 113146, 113417, 113441, 113490, 113637, 114033
 114128, 114209, 114443, 114786, 115008, 115481, 115601, 115956, 116578, 116862, 117382, 117402, 117586, 118054, 118090, 118651
 118950, 128578, 128727, 128953, 129141, 129151, 129161, 129333, 129408, 129700, 129783, 129820, 129880, 130075, 130198, 130408
 130465, 130507, 130675, 130827, 131319, 131533, 131586, 131634, 131719, 131751, 131768, 132009, 132185, 132219, 132341, 132377
 132413, 132568, 132632, 132655, 132773, 132920, 133010, 133093, 133352, 133409, 133428, 133652, 133747, 133778, 133812, 133847
 133851, 133900, 134161, 134259, 134289, 134390, 134509, 134545, 134547, 134757, 134759, 134765, 134801, 134857, 135008, 135350
 135510, 135560, 135791, 135793, 135998, 136209, 136482, 136693, 136717, 136766, 136902, 137102, 137160, 137171, 137282, 137498
** ... 5 like lines cut
*Surface, type=ELEMENT, name=Surf-1
_Surf-1_S1, S1
_Surf-1_S2, S2
_Surf-1_S4, S4
_Surf-1_S3, S3
*Elset, elset=_Surf-2_S1, internal
  41465,  41752,  44237,  44508,  50800,  54777,  55043,  55284,  59418,  65825,  66100,  66873,  69214,  77942,  78871,  78889
  82951,  83201,  83323,  86280,  87034,  87271,  87541,  88940,  89463,  89791,  90512,  92318,  92392,  92679,  93424,  93540
  94632,  95418,  96209,  96396,  96639,  97053,  97193,  97366,  99054,  99472,  99896, 100247, 100481, 101481, 101547, 101738
 102133, 103101, 103417, 104228, 122848
*Elset, elset=_Surf-2_S2, internal
 139724, 139782, 140069, 143455
*Elset, elset=_Surf-2_S3, internal
 140530, 140934, 143694
*Elset, elset=_Surf-2_S4, internal
 143637,
*Surface, type=ELEMENT, name=Surf-2
_Surf-2_S1, S1
_Surf-2_S2, S2
_Surf-2_S4, S4
_Surf-2_S3, S3
*Elset, elset=_Surf-3_S1, internal
  43158,  43324,  44260,  44315,  44759,  44919,  45933,  46070,  46113,  46552,  47074,  47875,  48186,  48392,  48705,  49112
  49521,  49629,  49992,  50519,  50521,  50643,  51167,  51260,  51562,  51694,  52149,  52179,  52538,  52541,  53271,  53318
  53353,  53616,  53617,  53651,  53806,  53822,  54131,  54225,  54469,  54848,  54897,  55107,  55182,  55272,  55837,  56053
  56286,  56370,  56488,  56524,  56690,  56873,  57221,  57311,  57447,  57577,  57661,  57915,  58189,  58251,  58594,  58757
  58908,  58921,  59161,  59299,  59596,  59623,  59652,  59832,  60006,  60466,  60513,  60535,  60663,  61052,  61215,  61269
  61549,  62036,  62139,  62358,  62389,  62506,  62739,  62874,  62878,  63073,  63131,  63241,  63310,  63678,  63803,  63867
  64075,  64161,  64222,  64241,  64280,  64289,  64336,  64400,  64599,  64834,  64838,  64921,  65153,  65185,  65277,  65377
  65404,  65430,  65857,  66134,  66343,  66374,  66389,  66862,  67093,  67100,  67424,  67443,  67455,  67469,  67642,  67650
  67744,  68487,  68730,  68757,  68975,  69019,  69134,  69231,  69247,  69321,  69376,  69499,  69537,  69637,  69655,  69761
  69872,  69880,  69885,  70016,  70069,  70088,  70096,  70225,  70255,  70299,  70603,  70824,  71128,  71243,  71571,  71592
  71720,  71760,  71788,  71845,  71910,  72216,  72236,  72343,  72363,  72448,  72479,  72613,  72860,  72949,  72979,  73144
  73197,  73242,  73270,  73381,  73567,  73647,  73661,  73725,  73773,  74124,  74126,  74153,  74176,  74312,  74359,  74431
  74436,  74460,  74534,  74613,  74709,  74770,  74950,  75009,  75144,  75220,  75375,  75477,  75589,  75650,  75870,  75897
  75925,  76161,  76292,  76385,  76441,  76562,  76587,  76732,  76881,  76976,  76977,  76985,  77014,  77214,  77276,  77599
  77602,  77699,  77836,  77985,  78031,  78135,  78414,  78431,  78441,  78448,  78467,  78488,  78554,  78634,  78670,  78671
  78756,  78813,  78814,  78898,  79040,  79090,  79125,  79129,  79212,  79243,  79296,  79310,  79311,  79383,  79392,  79409
  79426,  79490,  79495,  79551,  79727,  79851,  79871,  79912,  79977,  80031,  80046,  80067,  80136,  80145,  80235,  80385
  80413,  80441,  80487,  80501,  80504,  80513,  80649,  80751,  80783,  80790,  80925,  80969,  81061,  81104,  81227,  81263
  81378,  81410,  81465,  81557,  81563,  81636,  81913,  81929,  81938,  81942,  82004,  82060,  82114,  82125,  82159,  82243
  82308,  82434,  82583,  82676,  82765,  82782,  82784,  82803,  82848,  82865,  82876,  82891,  82914,  82976,  83008,  83102
** ... 129 like lines cut
*Elset, elset=_Surf-3_S2, internal
  40683,  41069,  42691,  43134,  43395,  44177,  45668,  47457,  47987,  48687,  49125,  51840,  56033,  56557,  57726,  60533
  61308,  61561,  62869,  63515,  66095,  66847,  67214,  69142,  69259,  72297,  74190,  75117,  75615,  76678,  76783,  78084
  78720,  79770,  80163,  80406,  80529,  81602,  81630,  82046,  82372,  82825,  82830,  83796,  84033,  84179,  84433,  84559
  84820,  84876,  84908,  85005,  85161,  85217,  85294,  85434,  85693,  85830,  85917,  86074,  86709,  86791,  86841,  87131
  87272,  88118,  88164,  88170,  88347,  88496,  88638,  89040,  89157,  89812,  90098,  90220,  90538,  90679,  90690,  90721
  90891,  91136,  91280,  91312,  91538,  91671,  92285,  92291,  92323,  92331,  92380,  92426,  92596,  92669,  92881,  92897
  93177,  93476,  93612,  93831,  94094,  94113,  94859,  94943,  95215,  95289,  95332,  95341,  95449,  95498,  95541,  95582
  95626,  95664,  95813,  95814,  95855,  95945,  95958,  95972,  95975,  96033,  96050,  96083,  96191,  96195,  96210,  96214
  96263,  96283,  96288,  96289,  96295,  96339,  96365,  96372,  96511,  96524,  96575,  96614,  96659,  96686,  96718,  96731
  96772,  96786,  96840,  96866,  97030,  97036,  97043,  97051,  97093,  97100,  97101,  97182,  97210,  97292,  97311,  97426
  97443,  97676,  97709,  97758,  97795,  97935,  98009,  98060,  98080,  98091,  98161,  98197,  98198,  98226,  98274,  98363
  98424,  98565,  98823,  98847,  98873,  98914,  98976,  99948, 100215, 100371, 100381, 100866, 101697, 102221, 102825, 103181
 103249, 103275, 103384, 103443, 103595, 103727, 104156, 104212, 104635, 104796, 104865, 105311, 105863, 105894, 106031, 106555
 106675, 106725, 106876, 107254, 107864, 107868, 108004, 108096, 108496, 108624, 108998, 109698, 110062, 110394, 110432, 110830
 110928, 110950, 111037, 111295, 111379, 111559, 111563, 112707, 112874, 113780, 113882, 114286, 114609, 115758, 115776, 115847
 116492, 116515, 116856, 117921, 118192, 118979, 119018, 119021, 119022, 119023, 119033, 119056, 119061, 119062, 119066, 119075
 119084, 119088, 119102, 119104, 119112, 119113, 119117, 119121, 119132, 119136, 119140, 119155, 119156, 119160, 119163, 119167
 119168, 119172, 119180, 119184, 119186, 119187, 119189, 119196, 119198, 119222, 119229, 119236, 119250, 119258, 119263, 119269
 119270, 119281, 119286, 119292, 119293, 119302, 119411, 119425, 119440, 119442, 119472, 119535, 119590, 119616, 119617, 119623
 119630, 119636, 119637, 119640, 119642, 119660, 119663, 119665, 119667, 119668, 119671, 119673, 119683, 119685, 119686, 119689
** ... 33 like lines cut
*Elset, elset=_Surf-3_S3, internal
  41187,  41195,  41873,  43026,  43070,  45225,  45593,  45890,  45936,  48016,  49929,  54798,  56202,  59090,  60946,  62014
  62217,  62303,  62556,  64429,  64490,  64862,  65318,  65462,  71975,  76795,  78617,  78643,  79207,  79423,  79486,  80135
  80204,  80634,  81863,  82504,  82532,  83453,  83604,  83851,  84277,  84328,  84563,  84641,  84842,  85114,  85548,  85721
  85862,  86004,  86201,  86292,  86534,  86643,  86765,  86845,  86878,  87207,  87823,  87916,  87937,  88127,  88590,  88709
  89043,  89177,  89277,  89678,  89877,  89936,  90057,  90095,  90278,  90351,  90628,  90741,  90980,  91253,  91388,  91448
  91458,  91463,  91679,  91699,  91766,  91908,  91948,  92098,  92157,  92192,  92660,  92800,  93051,  93128,  93205,  93401
  93599,  93606,  93896,  93976,  94109,  94260,  94842,  94931,  95014,  95030,  95118,  95137,  95216,  95374,  95491,  95543
  95549,  95624,  95685,  95773,  96004,  96046,  96071,  96072,  96080,  96084,  96211,  96264,  96278,  96304,  96469,  96477
  96494,  96527,  96627,  96691,  96698,  96735,  96860,  96867,  96873,  96907,  96909,  96926,  97006,  97091,  97092,  97195
  97236,  97239,  97324,  97505,  97552,  97573,  97576,  97584,  97585,  97593,  97614,  97708,  97737,  97820,  97888,  97897
  97915,  97922,  98008,  98455,  98700,  98784,  98864,  99021,  99178,  99208,  99268,  99359,  99388,  99528,  99555,  99663
  99724,  99767,  99947, 100017, 100218, 100306, 101123, 101563, 101758, 103791, 104041, 104275, 104448, 104713, 105106, 105225
 105352, 105710, 105918, 105958, 106101, 106215, 106217, 106270, 106614, 106748, 106754, 107641, 107650, 107806, 107837, 107994
 108093, 108505, 109017, 109019, 109186, 109436, 109917, 109969, 110025, 110049, 110069, 110411, 110424, 110899, 111236, 111253
 111519, 111653, 111729, 112039, 112271, 112277, 112640, 113566, 113627, 113688, 114416, 115395, 116189, 116968, 117204, 119005
 119014, 119020, 119025, 119048, 119065, 119095, 119105, 119125, 119127, 119129, 119141, 119142, 119144, 119146, 119154, 119248
 119252, 119254, 119260, 119276, 119277, 119298, 119300, 119395, 119429, 119512, 119579, 119583, 119592, 119593, 119601, 119602
 119604, 119611, 119615, 119631, 119647, 119648, 119676, 119684, 119699, 119706, 119714, 119721, 119727, 119736, 119747, 120127
 120140, 120144, 120147, 120148, 120214, 120232, 120240, 120248, 120252, 120255, 120256, 120259, 120262, 120265, 120267, 120274
 120279, 120281, 120296, 120315, 120520, 120522, 120539, 120546, 120566, 120568, 120570, 120585, 120586, 120587, 120594, 120600
** ... 18 like lines cut
*Elset, elset=_Surf-3_S4, internal
  40925,  41936,  43878,  44577,  44961,  45232,  46121,  50421,  55499,  61523,  64157,  65198,  74629,  77840,  77977,  78481
  78907,  78942,  79368,  79459,  79847,  80462,  80569,  81852,  82113,  82622,  82654,  83199,  83235,  83368,  83861,  83981
  84519,  84879,  84905,  85207,  85346,  85492,  85641,  86100,  86333,  86664,  87002,  87144,  87224,  87715,  88183,  88378
  88598,  89088,  89308,  89431,  89650,  89930,  90005,  90046,  90075,  90148,  90426,  90543,  91176,  91511,  91750,  91896
  92022,  92278,  92342,  92667,  92785,  92833,  92838,  92864,  92989,  93332,  93371,  93839,  93920,  94269,  94335,  94495
  95070,  95102,  95451,  95486,  95612,  95760,  95884,  95994,  95997,  96015,  96236,  96473,  96555,  96640,  96844,  97027
  97060,  97110,  97414,  97578,  97759,  98316,  98985,  99984, 100243, 101443, 101673, 102931, 103229, 104398, 104556, 105276
 105649, 105693, 105954, 106077, 106168, 106466, 106940, 107897, 111167, 111258, 115188, 119004, 119030, 119041, 119042, 119055
 119057, 119069, 119096, 119098, 119111, 119134, 119137, 119151, 119157, 119159, 119181, 119190, 119195, 119216, 119238, 119239
 119240, 119242, 119247, 119249, 119278, 119279, 119280, 119282, 119294, 119471, 119489, 119506, 119570, 119585, 119591, 119594
 119595, 119597, 119609, 119612, 119619, 119620, 119633, 119634, 119635, 119651, 119656, 119664, 119669, 119675, 119692, 119700
 119703, 119704, 119705, 119712, 119717, 119895, 120125, 120129, 120137, 120143, 120145, 120146, 120152, 120155, 120173, 120189
 120192, 120204, 120205, 120221, 120225, 120241, 120244, 120254, 120258, 120277, 120278, 120280, 120285, 120286, 120297, 120309
 120535, 120540, 120542, 120544, 120556, 120563, 120569, 120572, 120580, 120581, 120584, 120588, 120604, 120617, 120630, 120632
 120636, 120647, 120654, 120656, 120657, 120661, 120662, 120667, 120669, 120672, 120677, 120679, 120681, 120682, 120687, 120694
 120695, 120700, 120705, 120710, 120712, 120714, 120719, 120733, 120746, 120748, 120768, 120774, 120776, 120780, 120793, 120800
 120803, 120810, 120817, 120822, 120824, 120828, 120833, 120840, 120846, 120849, 120851, 120864, 120873, 120875, 120878, 120879
 120889, 120896, 120905, 120909, 120910, 120919, 120925, 120929, 120938, 120947, 120963, 120981, 120990, 120992, 121003, 121004
 121014, 121028, 121032, 121033, 121036, 121038, 121053, 121061, 121068, 121070, 121073, 121075, 121077, 121088, 121092, 121101
 121102, 121107, 121108, 121117, 121125, 121129, 121133, 121137, 121140, 121144, 121149, 121150, 121161, 121176, 121180, 121190
** ... 17 like lines cut
*Surface, type=ELEMENT, name=Surf-3
_Surf-3_S1, S1
_Surf-3_S2, S2
_Surf-3_S4, S4
_Surf-3_S3, S3
*Elset, elset=_Surf-4_S1, internal
  40793,  41909,  43846,  64750,  66427,  66759,  81160,  82796,  89565,  89688,  89807,  93870, 119037, 119755, 119765, 119766
 119768, 119775, 119865, 119867, 119868, 119884, 119889, 119908, 119912, 119913, 119917, 119966, 119972, 119976, 119980, 119981
 120101, 120102, 120425, 120428, 120443, 120444, 120483, 120490, 120505, 120506, 121353, 121377, 121382, 121384, 121400, 121402
 121404, 121405, 121410, 121426, 121427, 121627, 121649, 121756, 121807, 121873, 121877, 121878, 127422, 127424
*Elset, elset=_Surf-4_S2, internal
  52687,  58288,  75101,  82753,  91755,  91939,  92290,  93211,  96657, 119017, 119035, 119070, 119082, 119265, 119284, 119296
 119387, 119491, 119539, 119759, 119762, 119773, 119776, 119853, 119881, 119897, 119919, 119935, 119939, 119941, 119947, 119962
 120057, 120090, 120092, 120110, 120111, 120112, 120434, 120454, 120459, 120464, 120471, 120473, 120481, 120518, 120529, 120531
 121352, 121354, 121372, 121392, 121424, 121425, 121582, 121586, 121589, 121597, 121609, 121615, 121639, 121714, 121716, 121721
 121723, 121724, 121733, 121749, 121750, 121758, 121760, 121764, 121767, 121770, 121773, 121790, 121791, 121793, 121797, 121802
 121808, 121818, 121826, 121827, 121833, 121843, 127108, 127413, 127421, 127438, 128465, 128834, 128890, 129023, 129028, 129057
 129159, 129519, 129689, 130025, 130202, 130435, 130492, 130515, 130634, 130798, 130823, 130877, 130950, 131012, 131469, 131801
 132057, 132401, 132828, 133188, 133224, 133644, 133730, 134169, 134414, 134624, 134936, 134987, 135184, 135303, 135552, 136452
 136463, 136631, 136745, 136753, 137469, 137883, 137956, 137962, 138078, 138108, 138277, 138483, 138674, 138795, 139290, 140413
 140622, 141054, 141066, 141145, 141410, 141944, 142020, 142171, 142406, 142541, 142796, 142830, 142834, 145489
*Elset, elset=_Surf-4_S3, internal
  41767,  48372,  59496,  85726,  87546,  87968,  95578, 119000, 119077, 119161, 119192, 119402, 119534, 119546, 119551, 119715
 119752, 119770, 119849, 119869, 119870, 119886, 119891, 119910, 119928, 119948, 119964, 119974, 120066, 120091, 120098, 120346
 120448, 120455, 120456, 120462, 120472, 120477, 120482, 120530, 121370, 121580, 121585, 121587, 121595, 121599, 121613, 121637
 121642, 121644, 121663, 121728, 121729, 121730, 121731, 121736, 121752, 121753, 121768, 121771, 121783, 121785, 121792, 121794
 121796, 121815, 121821, 121822, 121824, 121832, 121834, 127126, 127414, 127433, 127435, 127437, 128590, 128625, 130138, 132434
 133270, 134189, 135253, 135267, 135424, 135433, 136368, 136598, 137344, 137787, 138028, 139041, 139628, 140179, 140199, 142127
 142284, 142665, 143270, 145492, 145518
*Elset, elset=_Surf-4_S4, internal
  68319,  72753,  80045,  82537,  91616,  92672,  96145, 101765, 118973, 119024, 119029, 119076, 119211, 119396, 119750, 119751
 119756, 119757, 119763, 119872, 119873, 119875, 119877, 119880, 119883, 119890, 119892, 119905, 119940, 119943, 119945, 120030
 120093, 120094, 120097, 120326, 120353, 120451, 120457, 120466, 120476, 120494, 121265, 121266, 121348, 121369, 121371, 121409
 121489, 121583, 121584, 121590, 121593, 121596, 121608, 121612, 121623, 121638, 121650, 121652, 121653, 121654, 121665, 121720
 121722, 121726, 121735, 121759, 121762, 121769, 121775, 121779, 121784, 121805, 121825, 121829, 121831, 121835, 121836, 121837
 121838, 121853, 127119, 127120, 127416, 127442, 128525, 128587, 128846, 129357, 129434, 129439, 129527, 129581, 129694, 129928
 130297, 130404, 130541, 131046, 131376, 131529, 131562, 131675, 131861, 132150, 132199, 132505, 132608, 132939, 133113, 133529
 134335, 134752, 134966, 135037, 135084, 135507, 136205, 136341, 136574, 137184, 137657, 137827, 138877, 138899, 139096, 139579
 140136, 140140, 140254, 140423, 140646, 140842, 140874, 141079, 141186, 141374, 141473, 142449, 142667, 142734, 142742
*Surface, type=ELEMENT, name=Surf-4
_Surf-4_S1, S1
_Surf-4_S2, S2
_Surf-4_S4, S4
_Surf-4_S3, S3
*Elset, elset=_Surf-5_S1, internal
  41745,  44383,  70497,  75118,  87243,  91223,  92166,  95348,  97227, 119063, 119210, 119388, 119753, 119835, 119856, 119857
 119861, 119862, 120071, 120120, 120345, 120347, 120404, 120408, 120409, 120413, 120414, 120513, 121360, 121430, 121433, 121435
 121439, 121486, 121498, 121505, 121544, 121557, 121626, 121680, 121683, 121684, 121703, 121705, 121709, 121710, 121711, 121717
 121742, 121745, 121862, 121864, 121880, 121882, 121886, 121892, 121900, 121907, 121910, 121912, 121915, 121975, 121976, 121982
 121991, 121994, 121995, 121999, 126107
*Elset, elset=_Surf-5_S2, internal
  41421,  45552,  54096,  69124,  77880,  79293,  84058,  87114,  89713,  90910,  91536,  91740,  95896,  96114, 119288, 119749
 119804, 119833, 119920, 119922, 119932, 119933, 119946, 119950, 119952, 119954, 119984, 120007, 120017, 120020, 120023, 120034
 120336, 120340, 120403, 120407, 120410, 120415, 120416, 120418, 120423, 120438, 120447, 120495, 120501, 120511, 120515, 120516
 121351, 121379, 121394, 121448, 121449, 121454, 121461, 121468, 121492, 121500, 121510, 121547, 121548, 121549, 121554, 121561
 121562, 121564, 121569, 121571, 121598, 121619, 121620, 121622, 121666, 121685, 121746, 121748, 121860, 121970, 126100, 126130
 126133, 126134, 126139, 127482, 127501, 127506, 128640, 128765, 128802, 129310, 129347, 129369, 129663, 129683, 129925, 130108
 130257, 130345, 130428, 130769, 131011, 131240, 131306, 131404, 131413, 131812, 131876, 132070, 132074, 132142, 132229, 132353
 132618, 132685, 133078, 133197, 133284, 133394, 133460, 133612, 133800, 133930, 134102, 134213, 134434, 134482, 134556, 135157
 135194, 135496, 135522, 135640, 135650, 135673, 136183, 136229, 136326, 136593, 136622, 136875, 137072, 137208, 137382, 137402
 137414, 137484, 137590, 137864, 137998, 138270, 139244, 139278, 139370, 139435, 139922, 140430, 140466, 140830, 141004, 141139
 141165, 141391, 142432, 142573, 142631, 142636, 142826, 142987, 143002, 143074
*Elset, elset=_Surf-5_S3, internal
  45914,  54277,  65111,  90742,  92724,  94909,  97754, 119028, 119826, 119840, 119841, 119921, 119949, 119953, 119959, 120011
 120053, 120064, 120073, 120074, 120343, 120348, 120421, 120496, 120498, 120503, 121358, 121363, 121385, 121393, 121419, 121434
 121443, 121450, 121497, 121502, 121509, 121514, 121533, 121539, 121545, 121552, 121563, 121566, 121567, 121579, 121630, 121675
 121715, 121725, 121844, 121854, 121858, 121865, 121866, 121894, 121897, 121964, 121968, 121979, 121981, 126059, 126099, 126103
 127507, 128342, 128462, 128504, 128971, 129135, 129250, 129918, 130844, 130848, 132242, 132816, 134628, 134846, 135101, 135204
 135541, 135591, 136465, 136690, 136798, 137053, 137339, 137401, 137842, 137851, 137993, 138178, 138673, 139566, 139748, 139795
 140314, 142073, 142893, 142897, 143013, 143028, 143088
*Elset, elset=_Surf-5_S4, internal
  40773,  42140,  42895,  49092,  53257,  59174,  71081,  76289,  80370,  88423,  88829,  90534,  93538,  97232, 118975, 119397
 119398, 119482, 119544, 119830, 119832, 119843, 119951, 119955, 119957, 119958, 119961, 120009, 120012, 120054, 120056, 120059
 120065, 120115, 120116, 120117, 120119, 120342, 120419, 120432, 120436, 120439, 120441, 120497, 120499, 120512, 120519, 121416
 121444, 121494, 121536, 121537, 121542, 121559, 121574, 121575, 121676, 121681, 121857, 121859, 121868, 121871, 121899, 121947
 121967, 121971, 121972, 121978, 126083, 127504, 127505, 128388, 128415, 128480, 129397, 129792, 130123, 130419, 130512, 130756
 130814, 131147, 131689, 131957, 132021, 132237, 132522, 132713, 132926, 132989, 134037, 134439, 134855, 135027, 135272, 135451
 136765, 137067, 137349, 137581, 137741, 137782, 139039, 139092, 139964, 140152, 140581, 142627, 142643
*Surface, type=ELEMENT, name=Surf-5
_Surf-5_S1, S1
_Surf-5_S2, S2
_Surf-5_S4, S4
_Surf-5_S3, S3
*Elset, elset=_Surf-6_S1, internal
  47372,  49516,  61495,  70786,  70940,  89946,  90280,  90303,  91483,  93121, 119790, 119796, 119800, 119819, 119837, 119989
 120040, 120051, 120069, 120085, 120323, 120330, 120351, 120365, 120373, 120375, 120390, 120397, 120398, 120399, 121455, 121457
 121477, 121523, 121525, 121528, 121531, 121556, 121682, 121697, 121700, 121701, 121708, 121901, 121987, 121988, 121989, 122023
 122026, 122028, 122030, 122032, 122446, 123367, 123408, 123412, 123445, 123447, 123451, 125537, 125558
*Elset, elset=_Surf-6_S2, internal
  41418,  41941,  53674,  55453,  77876,  85133,  93322,  95678,  96081,  96334,  96924, 118982, 119036, 119085, 119309, 119317
 119334, 119780, 119781, 119783, 119785, 119788, 119789, 119793, 119799, 119813, 119817, 119985, 119987, 119988, 119997, 120016
 120027, 120029, 120033, 120081, 120088, 120322, 120325, 120327, 120356, 120358, 120359, 120369, 120377, 120380, 120386, 120387
 120388, 120394, 120395, 120396, 120420, 121459, 121466, 121473, 121479, 121484, 121485, 121496, 121511, 121513, 121516, 121520
 121522, 121532, 121917, 121936, 121942, 121946, 121949, 121952, 121956, 122005, 122006, 122008, 122010, 122012, 122014, 122019
 122052, 122069, 122460, 122465, 122476, 122488, 123387, 123729, 123761, 127487, 128500, 128751, 128772, 128949, 129228, 129461
 129523, 129639, 129706, 129862, 129898, 130561, 130905, 131028, 131366, 131379, 131775, 131932, 132042, 132095, 132145, 132371
 132425, 132599, 132664, 132689, 132935, 133465, 133595, 133775, 133817, 133966, 134519, 134549, 134583, 134678, 134976, 135212
 135462, 135620, 135638, 135863, 136064, 136134, 136709, 136839, 136941, 136952, 137125, 137316, 137332, 137356, 137388, 138010
 138168, 138394, 138600, 139173, 139376, 139453, 140325, 140795, 140979, 141335, 142383, 142472, 142608, 142626, 142679, 142807
 142925, 143031, 143082
*Elset, elset=_Surf-6_S3, internal
  47219,  57099,  71745,  72283,  81590,  83058,  84125,  85175,  88838,  90979,  94861,  96637,  97698, 119782, 119795, 119809
 120025, 120035, 120082, 120087, 120321, 120333, 120338, 120382, 120392, 120400, 120417, 121478, 121501, 121518, 121560, 121924
 121926, 121953, 122001, 122011, 122015, 122018, 122020, 122068, 122096, 122119, 122120, 122462, 122477, 122480, 123364, 123369
 123370, 123708, 123751, 123767, 124596, 125991, 127156, 127478, 127483, 127484, 127495, 127546, 128840, 129567, 129962, 130117
 130151, 131184, 131336, 132014, 132422, 133158, 133404, 133559, 133893, 134255, 134344, 134724, 135191, 136069, 136097, 136844
 137238, 137365, 137472, 137906, 137929, 138092, 138248, 138471, 139171, 139372, 139678, 140164, 140778, 141196, 141383, 142143
 142333, 142851, 143024, 143102
*Elset, elset=_Surf-6_S4, internal
  56481,  70757,  71408,  77074,  89300,  90257,  91639,  92748,  94306,  95024,  95096, 119031, 119081, 119385, 119541, 119548
 119794, 119806, 119820, 119855, 119998, 119999, 120014, 120038, 120058, 120079, 120349, 120354, 120366, 120370, 120371, 120383
 120385, 120401, 121447, 121475, 121515, 121693, 121695, 121919, 121921, 121933, 121939, 121940, 121941, 121944, 121948, 121951
 121954, 121958, 122000, 122004, 122034, 122097, 122098, 122257, 122463, 122487, 123335, 123365, 123384, 123385, 123388, 123763
 123764, 123766, 127509, 128451, 128543, 128731, 128760, 129653, 130218, 130460, 130646, 130713, 131079, 131210, 131311, 132587
 132796, 132991, 133145, 133361, 134611, 134933, 135041, 135088, 135320, 135683, 136157, 136315, 136625, 136866, 137542, 137555
 137597, 137892, 137982, 138476, 139404, 139720, 139995, 140607, 141331, 142725, 142749, 142768
*Surface, type=ELEMENT, name=Surf-6
_Surf-6_S1, S1
_Surf-6_S2, S2
_Surf-6_S4, S4
_Surf-6_S3, S3
*Elset, elset=_Surf-7_S1, internal
  53439,  79627,  79794,  87537,  91120,  94119,  94664,  95540,  95873, 119308, 119325, 122040, 122041, 122055, 122095, 122122
 122124, 122134, 122136, 122254, 123357, 123362, 123371, 123375, 123389, 123390, 123391, 123396, 123418, 123427, 123429, 123432
 123434, 123435, 123437, 123439, 123678, 123679, 123680, 123684, 123686, 123687, 123707, 123713, 123731, 123747, 125718, 125723
 125726,
*Elset, elset=_Surf-7_S2, internal
  41033,  41454,  45652,  49015,  62751,  72424,  73342,  81583,  88165,  88604,  90986,  91547,  91983,  92003,  94843,  97716
 118986, 121356, 121673, 121986, 122035, 122046, 122047, 122049, 122050, 122056, 122060, 122064, 122076, 122092, 122112, 122144
 122241, 122247, 122249, 122330, 122337, 122349, 122436, 122441, 122449, 122468, 122497, 122501, 122502, 122503, 122504, 122510
 123306, 123347, 123348, 123349, 123354, 123359, 123393, 123394, 123419, 123458, 123469, 123472, 123474, 123476, 123495, 123498
 123500, 123504, 123508, 123723, 123724, 123727, 123742, 123787, 124540, 124547, 124549, 125516, 125522, 125532, 125658, 125661
 125681, 128329, 128476, 128605, 128649, 128689, 128754, 128961, 129111, 129509, 129630, 129854, 130024, 130261, 130276, 130650
 130752, 131022, 131087, 131093, 131331, 131410, 131478, 131576, 131700, 131935, 132533, 132694, 132751, 133455, 133497, 133538
 133623, 133716, 134028, 134464, 134472, 134749, 134791, 134826, 134840, 135165, 135372, 135404, 135527, 135803, 136322, 136383
 136559, 136741, 136945, 137325, 137732, 137775, 137849, 137910, 137920, 138344, 138409, 138433, 139146, 139151, 139542, 139636
 139722, 139862, 140213, 140260, 140509, 140775, 142272, 142468, 142507, 142561, 142862, 142939, 142990, 142994, 143017
*Elset, elset=_Surf-7_S3, internal
  43879,  48028,  51732,  57611,  67609,  71623,  82510,  91345,  94387,  95615,  97809, 119348, 122036, 122039, 122043, 122059
 122062, 122066, 122072, 122114, 122115, 122117, 122118, 122127, 122143, 122164, 122172, 122244, 122250, 122259, 122316, 122354
 122434, 122450, 122451, 122456, 122471, 122473, 122474, 122475, 122479, 122489, 122491, 122493, 122499, 122506, 122508, 122533
 122536, 122537, 122538, 123336, 123346, 123366, 123421, 123425, 123459, 123466, 123479, 123482, 123493, 123501, 123505, 123753
 125660, 125730, 128708, 129010, 129493, 130517, 132673, 133514, 133916, 135196, 135546, 135642, 135746, 137369, 138174, 138296
 138356, 139070, 139308, 139709, 140885, 142027
*Elset, elset=_Surf-7_S4, internal
  49248,  70185,  85266,  88036,  90553,  90879,  91634,  91910,  96139,  96922, 121687, 121922, 122038, 122044, 122054, 122075
 122089, 122094, 122216, 122245, 122246, 122340, 122408, 122417, 122433, 122453, 122458, 122470, 122472, 122495, 122500, 122505
 122507, 122522, 122535, 122540, 123298, 123333, 123361, 123363, 123377, 123380, 123402, 123422, 123423, 123431, 123467, 123470
 123477, 123492, 123502, 123503, 123507, 123714, 123716, 123739, 123740, 123743, 123744, 123745, 123769, 123772, 123773, 123775
 123778, 123784, 123785, 124513, 124539, 125529, 125732, 125735, 128320, 128661, 128745, 128943, 129465, 129488, 130324, 130577
 130980, 131195, 131259, 132033, 132061, 132307, 132657, 133044, 133373, 134407, 135173, 135442, 135752, 135798, 136288, 137037
 137113, 137120, 137180, 137760, 138029, 138044, 138282, 138311, 138379, 138427, 138454, 138464, 138749, 138807, 139193, 139829
 140419, 140565, 140584, 140712, 140825, 141069, 141168, 141354, 141401, 142674, 142675, 142692
*Surface, type=ELEMENT, name=Surf-7
_Surf-7_S1, S1
_Surf-7_S2, S2
_Surf-7_S4, S4
_Surf-7_S3, S3
*Elset, elset=_Surf-8_S1, internal
  77990,  78477,  89284,  91268,  91523, 122140, 122149, 122207, 122226, 122231, 122232, 122237, 122280, 122357, 122402, 122419
 122422, 122424, 123340, 123536, 123542, 123545, 123547, 123549, 123602, 123603, 123657, 123661, 123664, 123667, 123670, 123692
 123734, 123735, 123737, 123812, 123868, 123870, 123871, 123873, 123884, 123885, 123888
*Elset, elset=_Surf-8_S2, internal
  41612,  47336,  49185,  49342,  49769,  53176,  56182,  59524,  71555,  72073,  73851,  75640,  76601,  85284,  87124,  89213
  90463,  91235,  93710,  94497,  95441,  95465,  95824,  96045,  96447,  97807, 121481, 122071, 122078, 122082, 122083, 122128
 122129, 122217, 122221, 122229, 122273, 122276, 122305, 122346, 122415, 122527, 122529, 122531, 122547, 122550, 122554, 123125
 123211, 123300, 123327, 123399, 123453, 123454, 123460, 123490, 123520, 123523, 123528, 123533, 123534, 123537, 123540, 123586
 123590, 123592, 123593, 123600, 123604, 123645, 123655, 123701, 123726, 123777, 123794, 123806, 123807, 123814, 123866, 123880
 123883, 124509, 124525, 125472, 125569, 125574, 125581, 125677, 128493, 128870, 128957, 129098, 129304, 129543, 129991, 130176
 130382, 130791, 130864, 130931, 131102, 131447, 131464, 131487, 131499, 131503, 131641, 132025, 132136, 132320, 132526, 132625
 132821, 132844, 132966, 133255, 133421, 133698, 134055, 134065, 134197, 134366, 134418, 134632, 134699, 136715, 136721, 137058
 137285, 137444, 137462, 137703, 137977, 137984, 138572, 138666, 138706, 139057, 139119, 139242, 139428, 139696, 140806, 142535
 142914, 143010, 143049, 143058
*Elset, elset=_Surf-8_S3, internal
  44966,  49573,  50581,  52111,  61643,  64871,  79005,  82896,  93629, 119338, 122125, 122153, 122157, 122174, 122223, 122234
 122240, 122264, 122271, 122284, 122310, 122412, 122413, 122427, 122437, 122439, 122442, 122443, 122496, 122512, 122513, 122526
 122548, 122553, 123319, 123324, 123341, 123342, 123403, 123506, 123531, 123538, 123583, 123589, 123594, 123596, 123599, 123620
 123647, 123650, 123656, 123697, 123728, 123730, 123782, 123791, 123808, 123817, 123839, 123867, 123877, 123881, 123882, 125560
 128656, 129036, 129336, 129938, 130527, 130954, 131451, 131550, 131764, 132304, 132468, 132472, 133065, 133581, 133597, 133679
 134619, 134900, 135820, 136015, 136420, 137518, 137552, 137639, 138036, 138206, 138230, 138527, 138557, 138578, 138624, 138651
 138988, 139441, 140304, 140390, 140648, 140700, 140786, 140939, 142068, 142605, 142935, 143069
*Elset, elset=_Surf-8_S4, internal
  68908,  73263,  84883,  89011,  89739,  91978,  94152,  95488,  97595,  97805, 119394, 121629, 122063, 122131, 122139, 122147
 122163, 122165, 122167, 122176, 122315, 122416, 122525, 122530, 122552, 122555, 123343, 123345, 123351, 123397, 123452, 123462
 123463, 123488, 123510, 123517, 123522, 123524, 123541, 123543, 123584, 123646, 123659, 123694, 123695, 123698, 123702, 123704
 123720, 123779, 123792, 123809, 123810, 123816, 123863, 123878, 124487, 125557, 125567, 125590, 125656, 125739, 128547, 129756
 129802, 129847, 130705, 130724, 131580, 132333, 132358, 132516, 132642, 132865, 133105, 133156, 133542, 133722, 133984, 134151
 134331, 134380, 134993, 135109, 135577, 135623, 135631, 135726, 136427, 136498, 136587, 136872, 136933, 137246, 138620, 138721
 138916, 138992, 140404, 141216, 142429, 142655, 142841
*Surface, type=ELEMENT, name=Surf-8
_Surf-8_S1, S1
_Surf-8_S2, S2
_Surf-8_S4, S4
_Surf-8_S3, S3
*Elset, elset=_Surf-9_S1, internal
  91277,  91454, 118976, 118998, 122138, 122179, 122182, 122185, 122194, 122239, 122291, 122298, 122299, 122379, 122557, 122559
 122561, 122567, 122570, 122572, 122578, 123020, 123191, 123293, 123312, 123352, 123513, 123515, 123564, 123613, 123621, 123623
 123628, 123632, 123633, 123635, 123639, 123641, 123671, 123673, 123677, 123813, 123829, 123857, 123858, 123902, 123905, 123907
 123908, 123927, 123931
*Elset, elset=_Surf-9_S2, internal
  47856,  49890,  83464,  88393,  90968,  93101,  97295, 118990, 118995, 119328, 119373, 119798, 119911, 119983, 120086, 122151
 122189, 122201, 122204, 122206, 122215, 122218, 122279, 122281, 122285, 122286, 122287, 122303, 122361, 122363, 122383, 122385
 122407, 122409, 122410, 122411, 122571, 122575, 122582, 122593, 122594, 122960, 122965, 123073, 123170, 123180, 123193, 123261
 123290, 123322, 123325, 123554, 123559, 123565, 123566, 123570, 123573, 123587, 123608, 123609, 123615, 123630, 123827, 123828
 123842, 123843, 123846, 123848, 123855, 123892, 123898, 123899, 123961, 124008, 124419, 124446, 125587, 128445, 128598, 128703
 128813, 129171, 129377, 129612, 129646, 130364, 130897, 130998, 131151, 131507, 131840, 132161, 132195, 132475, 132558, 133195
 133244, 133294, 133340, 133385, 133608, 134250, 134491, 134541, 135370, 135954, 136107, 136440, 136780, 136857, 136926, 137244
 137258, 137425, 137465, 138329, 138388, 138436, 138461, 138742, 138939, 139024, 139228, 139234, 139806, 139979, 140451, 141395
 142062, 142597, 142653, 142765, 142875, 142928, 142961
*Elset, elset=_Surf-9_S3, internal
  41768,  47411,  48267,  53689,  64534,  72056,  73100,  73581,  82730,  83948,  88346,  88674,  91252,  91926,  92220, 119315
 120352, 121688, 122170, 122211, 122213, 122265, 122282, 122293, 122362, 122374, 122384, 122389, 122574, 122585, 122595, 122598
 122600, 122702, 122711, 122958, 123006, 123008, 123009, 123011, 123035, 123192, 123212, 123288, 123292, 123303, 123309, 123539
 123552, 123555, 123560, 123561, 123606, 123607, 123614, 123616, 123624, 123651, 123841, 123844, 123894, 123900, 123904, 123926
 124012, 124035, 125631, 128845, 129168, 130072, 130880, 130945, 132591, 132734, 133130, 133318, 133547, 134387, 134607, 134637
 134952, 135456, 135634, 135855, 136178, 136357, 136727, 137522, 137674, 138147, 138402, 138489, 138958, 138968, 139511, 140746
 142082, 142578, 142943, 142975
*Elset, elset=_Surf-9_S4, internal
  50734,  65275,  91037,  93590,  93902,  95955, 118980, 118996, 119330, 122130, 122150, 122169, 122171, 122173, 122177, 122191
 122192, 122198, 122199, 122292, 122300, 122373, 122376, 122386, 122388, 122576, 122589, 122599, 122710, 122966, 123027, 123190
 123213, 123223, 123255, 123264, 123556, 123562, 123571, 123618, 123619, 123821, 123849, 123853, 123895, 123897, 123962, 123964
 125459, 125619, 125637, 128552, 128719, 128912, 129062, 129095, 129314, 129359, 129402, 129999, 130051, 130066, 130226, 130266
 131035, 131074, 131360, 131486, 131524, 132090, 132560, 133193, 133797, 134063, 134310, 134734, 134738, 135277, 136389, 136435
 136606, 137200, 137288, 137895, 137916, 138200, 138289, 138413, 138510, 138541, 138602, 138682, 138814, 138847, 140527, 140664
 142400, 142662, 142699, 142915, 142956
*Surface, type=ELEMENT, name=Surf-9
_Surf-9_S1, S1
_Surf-9_S2, S2
_Surf-9_S4, S4
_Surf-9_S3, S3
*Elset, elset=_Surf-10_S1, internal
  52206,  52417,  52485,  57226,  78002,  85150,  86748,  90462,  93336,  93397,  93665, 122663, 122664, 122665, 122685, 122689
 122713, 122727, 122728, 122730, 122739, 122920, 122923, 122924, 122926, 122938, 122963, 123038, 123046, 123048, 123049, 123074
 123075, 123077, 123078, 123083, 123086, 123088, 123195, 123200, 123203, 123204, 123207, 123218, 123243, 123246, 123247, 123280
 123318, 123952, 123974, 123978, 124406, 124407, 124408
*Elset, elset=_Surf-10_S2, internal
  44339,  57794,  68983,  74348,  74681,  82216,  89751,  90416,  91409,  92218,  94019,  94194,  94880,  96127, 119320, 119354
 119542, 120044, 122601, 122659, 122667, 122670, 122678, 122679, 122712, 122718, 122826, 122914, 122935, 122957, 122968, 122977
 123005, 123007, 123014, 123023, 123030, 123031, 123064, 123198, 123225, 123227, 123270, 123272, 123282, 123917, 123948, 123950
 123960, 123997, 124014, 124018, 124026, 124027, 124033, 124044, 124286, 124308, 124325, 124327, 128514, 128554, 128801, 129215
 129323, 129350, 129769, 129785, 129978, 130232, 130307, 130328, 130555, 130614, 130785, 131428, 131444, 131545, 131626, 131727
 131988, 132177, 132226, 132261, 132486, 132769, 132785, 132906, 133141, 133302, 133712, 134097, 134577, 134887, 135260, 135811
 135835, 135889, 135915, 136024, 136401, 136615, 136897, 137294, 137770, 138037, 138305, 138695, 138788, 138893, 139136, 139144
 139210, 139356, 139438, 139555, 139732, 140293, 140295, 140301, 140726, 140807, 141209, 142230, 142367
*Elset, elset=_Surf-10_S3, internal
  40832,  50342,  64894,  71056,  95013,  95484,  96335,  97633,  97796, 119289, 119312, 122586, 122604, 122606, 122661, 122668
 122669, 122671, 122672, 122677, 122680, 122697, 122700, 122706, 122707, 122719, 122927, 122967, 122988, 123016, 123024, 123037
 123044, 123069, 123070, 123080, 123084, 123137, 123239, 123240, 123258, 123263, 123266, 123269, 123825, 123922, 123947, 123957
 123958, 123966, 123971, 123976, 123980, 123993, 123999, 124004, 124005, 124025, 124028, 124032, 124034, 124038, 124040, 128444
 129280, 130060, 131051, 132102, 132296, 132723, 132977, 134528, 134563, 135103, 135201, 135311, 136075, 137802, 137824, 137888
 138448, 138586, 138605, 139507, 142711, 143000, 143044, 143111, 143116
*Elset, elset=_Surf-10_S4, internal
  40600,  41374,  41703,  43646,  45357,  47749,  50022,  53868,  53982,  63316,  67069,  69086,  69585,  77240,  77548,  93411
  93683,  96223, 119363, 122609, 122610, 122673, 122676, 122681, 122683, 122695, 122708, 122709, 122716, 122717, 122720, 122722
 122922, 122955, 122961, 122969, 122972, 122981, 123004, 123010, 123015, 123017, 123021, 123040, 123043, 123068, 123079, 123082
 123181, 123183, 123222, 123229, 123230, 123244, 123245, 123274, 123277, 123283, 123915, 123933, 123949, 123959, 123965, 123970
 124003, 124006, 124041, 124042, 124043, 128540, 128862, 129175, 129234, 129850, 131217, 131615, 131844, 131888, 132572, 132803
 132948, 133669, 134005, 134573, 134705, 134741, 136050, 136551, 136954, 137380, 137792, 137873, 138745, 138829, 139004, 139220
 140630, 141017, 142241, 142500
*Surface, type=ELEMENT, name=Surf-10
_Surf-10_S1, S1
_Surf-10_S2, S2
_Surf-10_S4, S4
_Surf-10_S3, S3
*Elset, elset=_Surf-11_S1, internal
  79386,  83480,  86479,  89596, 122650, 122658, 122687, 122690, 122731, 122737, 122888, 122889, 122891, 122892, 122908, 122910
 122911, 122936, 122937, 122940, 122947, 122952, 123029, 123050, 123053, 123155, 123175, 123177, 123231, 123234, 123237, 124066
 124087, 124141
*Elset, elset=_Surf-11_S2, internal
  63821,  70060,  74660,  79822,  88061,  88985,  97186, 119339, 119351, 122375, 122612, 122615, 122634, 122655, 122723, 122733
 122734, 122735, 122736, 122742, 122746, 122762, 122767, 122774, 122778, 122784, 122785, 122832, 122834, 122838, 122864, 122893
 122900, 122902, 122904, 122907, 122912, 122913, 122918, 122929, 122942, 122971, 122987, 122991, 122994, 122997, 123058, 123060
 123094, 123097, 123101, 123102, 123115, 123131, 123151, 123157, 123165, 123182, 123187, 123935, 123941, 123983, 123984, 123985
 123987, 124065, 124069, 124070, 124089, 124099, 124104, 124106, 124109, 124143, 124150, 124153, 124160, 124164, 124202, 124208
 124213, 125169, 128323, 128781, 129293, 129416, 129591, 130186, 130376, 130380, 130699, 130895, 131321, 131620, 131791, 131950
 132137, 132393, 132904, 132954, 133100, 133129, 133172, 133364, 133418, 134218, 134285, 134817, 134970, 136065, 136966, 137569
 137901, 138112, 138335, 138522, 138726, 138948, 139115, 139466, 139477, 139957, 141060, 141062, 141317, 142490, 142509, 143007
 143181,
*Elset, elset=_Surf-11_S3, internal
  43765,  44180,  60230,  82030,  82794,  86466,  88842,  92544,  97711, 119329, 119342, 119353, 119355, 122611, 122614, 122649
 122743, 122745, 122764, 122769, 122771, 122773, 122779, 122780, 122786, 122898, 122901, 122909, 122917, 122939, 122944, 122982
 122984, 122986, 122989, 122990, 122992, 122998, 123057, 123059, 123105, 123135, 123136, 123153, 123166, 123171, 123185, 123916
 123936, 123937, 123942, 123943, 123982, 123989, 124054, 124064, 124095, 124096, 124098, 124124, 124155, 124156, 124204, 124391
 124401, 128334, 128611, 129190, 131886, 132495, 133055, 133286, 133727, 134981, 135139, 135209, 135280, 135393, 136220, 136538
 136669, 136726, 136915, 138148, 138224, 138609, 138690, 139252, 139329, 139593, 140774, 141976, 142485, 142902, 142919
*Elset, elset=_Surf-11_S4, internal
  44829,  44999,  61245,  63540,  75778,  90371,  92297,  97119, 122587, 122648, 122653, 122741, 122744, 122752, 122753, 122768
 122782, 122783, 122787, 122788, 122862, 122887, 122899, 122906, 122915, 123130, 123150, 123164, 123824, 123934, 123981, 123988
 124093, 124097, 124105, 124140, 124144, 124147, 124149, 124151, 124162, 124402, 128530, 128563, 128739, 128881, 128983, 129205
 129508, 129933, 130659, 130808, 131317, 131655, 131678, 132360, 132712, 132737, 133212, 133262, 134505, 135486, 135625, 135661
 136164, 136226, 137146, 137228, 138318, 138584, 139207, 139358, 139385, 139514, 139590, 139942, 139948, 140484, 140652, 141179
 142642, 142757, 142783
*Surface, type=ELEMENT, name=Surf-11
_Surf-11_S1, S1
_Surf-11_S2, S2
_Surf-11_S4, S4
_Surf-11_S3, S3
*Elset, elset=_Surf-12_S1, internal
  44618,  47085,  80565,  80945,  81388,  82565,  86698,  90776,  93435,  97696, 119326, 119368, 122639, 122799, 122811, 122886
 123112, 123116, 123118, 123129, 123145, 123146, 123148, 124050, 124053, 124056, 124057, 124113, 124115, 124118, 124119, 124131
 124132, 124135, 124137, 124176, 125344, 125347
*Elset, elset=_Surf-12_S2, internal
  40629,  41752,  43039,  45996,  47126,  53790,  54777,  66100,  66873,  67043,  68144,  78342,  88028,  92128,  92719,  92871
  95567,  95941,  97968, 100293, 101809, 104222, 118987, 119335, 119336, 122628, 122642, 122795, 122807, 122817, 122823, 122835
 122837, 122848, 122850, 122859, 122866, 122868, 122871, 122874, 122876, 122878, 122884, 123110, 123149, 123252, 124047, 124048
 124078, 124079, 124123, 124134, 124181, 125331, 128854, 129048, 130188, 131851, 131976, 132203, 132286, 132543, 132636, 132869
 132918, 133237, 133310, 133313, 133451, 133640, 133742, 134178, 134307, 134775, 135543, 135613, 135730, 135883, 136311, 136338
 137493, 137507, 137614, 138083, 138215, 138303, 138349, 138772, 139080, 139585, 139726, 139766, 139784, 140065, 140288, 140599
 140828, 142424
*Elset, elset=_Surf-12_S3, internal
  41465,  42478,  43079,  43211,  43482,  45883,  50800,  55284,  56849,  73777,  78871,  81170,  92736,  93022,  96811, 104001
 118994, 119379, 122627, 122632, 122633, 122638, 122641, 122643, 122810, 122815, 122821, 122822, 122824, 122852, 122853, 122869
 122879, 123089, 123117, 123119, 123132, 123133, 123144, 124049, 124061, 124062, 124074, 124081, 124083, 124122, 124169, 124187
 124190, 124194, 125324, 128337, 128686, 129240, 130221, 134730, 134983, 135784, 138124, 139225, 140549, 141302, 143048, 145585
*Elset, elset=_Surf-12_S4, internal
  44237,  44508,  45879,  50651,  53393,  55043,  59418,  59714,  60994,  65825,  68965,  69214,  72137,  78226,  83128,  84428
  86137,  90391,  94304,  95853,  99671,  99949, 100571, 101260, 104317, 122630, 122635, 122636, 122640, 122789, 122794, 122800
 122801, 122802, 122806, 122809, 122816, 122825, 122843, 122845, 122854, 122855, 122880, 122881, 122882, 122883, 122885, 123091
 123092, 123103, 123122, 123123, 123127, 123128, 123143, 124080, 124085, 124086, 124121, 124125, 124127, 124189, 124191, 124199
 128793, 129805, 130271, 131193, 131702, 131737, 132780, 133049, 135678, 136554, 137534, 138802, 139322, 139685, 139901, 140755
*Surface, type=ELEMENT, name=Surf-12
_Surf-12_S1, S1
_Surf-12_S2, S2
_Surf-12_S4, S4
_Surf-12_S3, S3
** Section: SteelSection
*Solid Section, elset=Set-All, material=Steel
,
*End Part
**  
**
** ASSEMBLY
**
*Assembly, name=Assembly
**  
*Instance, name=OWT-1, part=PART-1
*End Instance
**  
*End Assembly
** 
** MATERIALS
** 
*Material, name=Steel
*Density
7850.,
*Elastic
 2.1e+11, 0.3
** 
** BOUNDARY CONDITIONS
** 
** Name: BC-Pinned Type: Displacement/Rotation
*Boundary
OWT-1.Set-Mudline, 1, 1
OWT-1.Set-Mudline, 2, 2
OWT-1.Set-Mudline, 3, 3
** ----------------------------------------------------------------
** 
** STEP: Step-Load
** 
*Step, name=Step-Load, nlgeom=YES
*Static
1., 1., 1e-05, 1.
** 
** LOADS
** 
** Name: Load-RNA-Thrust   Type: Surface traction
*Dsload, op=NEW
OWT-1.Surf-2, TRVEC, 841371., 1., 0., 0.
** Name: Load-RNA-Weight   Type: Surface traction
*Dsload, op=NEW
OWT-1.Surf-2, TRVEC, -4.74356e+06, 0., 0., 1.
** Name: Load-SelfWeight   Type: Gravity
*Dload
, GRAV, 9.81, 0., 0., -1.
** Name: Load-Wave   Type: Surface traction
*Dsload, op=NEW
OWT-1.Surf-3, TRVEC, 6127.51, 1., 0., 0.
** Name: Load-Wind-Seg-4   Type: Surface traction
*Dsload, op=NEW
OWT-1.Surf-4, TRVEC, 21.1373, 1., 0., 0.
** Name: Load-Wind-Seg-5   Type: Surface traction
*Dsload, op=NEW
OWT-1.Surf-5, TRVEC, 24.963, 1., 0., 0.
** Name: Load-Wind-Seg-6   Type: Surface traction
*Dsload, op=NEW
OWT-1.Surf-6, TRVEC, 27.5143, 1., 0., 0.
** Name: Load-Wind-Seg-7   Type: Surface traction
*Dsload, op=NEW
OWT-1.Surf-7, TRVEC, 29.4811, 1., 0., 0.
** Name: Load-Wind-Seg-8   Type: Surface traction
*Dsload, op=NEW
OWT-1.Surf-8, TRVEC, 31.103, 1., 0., 0.
** Name: Load-Wind-Seg-9   Type: Surface traction
*Dsload, op=NEW
OWT-1.Surf-9, TRVEC, 32.4942, 1., 0., 0.
** Name: Load-Wind-Seg-10   Type: Surface traction
*Dsload, op=NEW
OWT-1.Surf-10, TRVEC, 33.7189, 1., 0., 0.
** Name: Load-Wind-Seg-11   Type: Surface traction
*Dsload, op=NEW
OWT-1.Surf-11, TRVEC, 34.817, 1., 0., 0.
** Name: Load-Wind-Seg-12   Type: Surface traction
*Dsload, op=NEW
OWT-1.Surf-12, TRVEC, 35.525, 1., 0., 0.
** 
** OUTPUT REQUESTS
** 
*Restart, write, frequency=0
** 
** FIELD OUTPUT: F-Output-1
** 
*Output, field, variable=PRESELECT
** 
** HISTORY OUTPUT: H-Output-1
** 
*Output, history, variable=PRESELECT
*End Step
